version 3
run General-0-20240510-21:30:38-2544
attr configname General
attr datetime 20240510-21:30:38
attr datetimef 20240510-213038
attr experiment General
attr inifile omnetpp.ini
attr iterationvars ""
attr iterationvarsd ""
attr iterationvarsf ""
attr measurement ""
attr network test
attr processid 2544
attr repetition 0
attr replication #0
attr resultdir results
attr runnumber 0
attr seedset 0
config image-path ../../inet4.5/images
config network test
config **.arp.typename GlobalArp
config *.radioMedium.backgroundNoise.power -90dBm
config *.configurator.config "xmldoc(\"config.xml\")"
config **.numNodes 5
config *.leachNode[*].hasStatus true
config **.constraintAreaMinX 0m
config **.constraintAreaMaxX 400m
config **.constraintAreaMinY 0m
config **.constraintAreaMaxY 400m
config **.constraintAreaMinZ 0m
config **.constraintAreaMaxZ 0m
config **.wlan[*].radio.typename ApskScalarRadio
config **.wlan[*].**.bitrate 2Mbps
config *.BaseStation.routing.typename LeachBS
config *.leachNode[*].routing.typename Leach
config *.leachNode[*].routing.clusterHeadPercentage 0.1
config *.leachNode[*].routing.roundDuration 30s
config *.leachNode[*].wlan[*].radio.displayCommunicationRange true
config *.leachNode[*].wlan[*].radio.displayInterferenceRange true
config **.radio.centerFrequency 2GHz
config **.radio.bandwidth 2MHz
config **.radio.transmitter.power 1000.0W
config **.radio.transmitter.preambleDuration 10us
config **.radio.transmitter.headerLength 8B
config **.radio.receiver.sensitivity -85dBm
config **.radio.receiver.energyDetection -85dBm
config **.radio.receiver.snirThreshold 4dB
config *.radioMedium.pathLoss.typename FreeSpacePathLoss

par test.configurator typename "\"inet.networklayer.configurator.ipv4.Ipv4NetworkConfigurator\""
par test.configurator minLinkWeight 0.001
par test.configurator configureIsolatedNetworksSeparatly false
par test.configurator config "<config>...</config> at E:/omnetpp-6.0.3-windows-x86_64/workspace/test/simulations/\\config.xml:1"
par test.configurator assignAddresses true
par test.configurator assignUniqueAddresses true
par test.configurator assignDisjunctSubnetAddresses true
par test.configurator addStaticRoutes true
par test.configurator addDefaultRoutes true
par test.configurator addSubnetRoutes true
par test.configurator addDirectRoutes true
par test.configurator optimizeRoutes true
par test.configurator dumpTopology false
par test.configurator dumpLinks false
par test.configurator dumpAddresses false
par test.configurator dumpRoutes false
par test.configurator dumpConfig "\"\""
par test.radioMedium.propagation typename "\"inet.physicallayer.wireless.common.propagation.ConstantSpeedPropagation\""
par test.radioMedium.propagation propagationSpeed 2.99792e+08mps
attr unit mps
par test.radioMedium.propagation ignoreMovementDuringTransmission true
par test.radioMedium.propagation ignoreMovementDuringPropagation true
par test.radioMedium.propagation ignoreMovementDuringReception true
scalar test.radioMedium.propagation "Arrival computation count" 2290
par test.radioMedium.analogModel typename "\"inet.physicallayer.wireless.common.analogmodel.packetlevel.ScalarAnalogModel\""
par test.radioMedium.analogModel ignorePartialInterference false
par test.radioMedium.backgroundNoise typename "\"inet.physicallayer.wireless.common.backgroundnoise.IsotropicScalarBackgroundNoise\""
par test.radioMedium.backgroundNoise power -90dBm
attr unit dBm
par test.radioMedium.backgroundNoise bandwidth "nan Hz"
attr unit Hz
par test.radioMedium.pathLoss typename "\"inet.physicallayer.wireless.common.pathloss.FreeSpacePathLoss\""
par test.radioMedium.pathLoss alpha 2
par test.radioMedium.pathLoss systemLoss 0dB
attr unit dB
par test.radioMedium.mediumLimitCache typename "\"inet.physicallayer.wireless.common.medium.MediumLimitCache\""
par test.radioMedium.mediumLimitCache centerFrequency "nan Hz"
attr unit Hz
par test.radioMedium.mediumLimitCache maxSpeed "nan mps"
attr unit mps
par test.radioMedium.mediumLimitCache maxTransmissionPower "nan W"
attr unit W
par test.radioMedium.mediumLimitCache minInterferencePower "nan dBm"
attr unit dBm
par test.radioMedium.mediumLimitCache minReceptionPower "nan dBm"
attr unit dBm
par test.radioMedium.mediumLimitCache maxAntennaGain 0dB
attr unit dB
par test.radioMedium.mediumLimitCache minInterferenceTime 1e-12s
attr unit s
par test.radioMedium.mediumLimitCache maxTransmissionDuration 0.01s
attr unit s
par test.radioMedium.mediumLimitCache maxCommunicationRange "nan m"
attr unit m
par test.radioMedium.mediumLimitCache maxInterferenceRange "nan m"
attr unit m
par test.radioMedium.communicationCache typename "\"inet.physicallayer.wireless.common.communicationcache.VectorCommunicationCache\""
par test.radioMedium typename "\"inet.physicallayer.wireless.apsk.packetlevel.ApskScalarRadioMedium\""
par test.radioMedium physicalEnvironmentModule "\"physicalEnvironment\""
par test.radioMedium signalAnalogRepresentation "\"scalar\""
attr enum unitDisk,scalar,dimensional
par test.radioMedium rangeFilter "\"\""
par test.radioMedium radioModeFilter false
par test.radioMedium listeningFilter false
par test.radioMedium macAddressFilter false
par test.radioMedium recordTransmissionLog false
par test.radioMedium recordReceptionLog false
scalar test.radioMedium "transmission count" 458
scalar test.radioMedium "signal send count" 2290
scalar test.radioMedium "reception computation count" 2290
scalar test.radioMedium "interference computation count" 7340
scalar test.radioMedium "reception decision computation count" 2290
scalar test.radioMedium "listening decision computation count" 2760
scalar test.radioMedium "reception cache hit" 85.714285714286
attr unit %
scalar test.radioMedium "interference cache hit" 66.666666666667
attr unit %
scalar test.radioMedium "noise cache hit" 0
attr unit %
scalar test.radioMedium "snir cache hit" 50
attr unit %
scalar test.radioMedium "reception decision cache hit" 50
attr unit %
scalar test.radioMedium "reception result cache hit" 0
attr unit %
par test.visualizer.sceneVisualizer typename "\"inet.visualizer.canvas.scene.SceneCanvasVisualizer\""
par test.visualizer.sceneVisualizer visualizationTargetModule "\"^.^\""
par test.visualizer.sceneVisualizer visualizationSubjectModule "\"^.^\""
par test.visualizer.sceneVisualizer tags "\"\""
par test.visualizer.sceneVisualizer physicalEnvironmentModule "\"physicalEnvironment\""
par test.visualizer.sceneVisualizer networkNodeVisualizerModule "\"^.networkNodeVisualizer\""
par test.visualizer.sceneVisualizer axisLength "nan m"
attr mutable ""
attr unit m
par test.visualizer.sceneVisualizer animationSpeed 0
par test.visualizer.sceneVisualizer sceneMinX "nan m"
attr unit m
par test.visualizer.sceneVisualizer sceneMinY "nan m"
attr unit m
par test.visualizer.sceneVisualizer sceneMinZ "nan m"
attr unit m
par test.visualizer.sceneVisualizer sceneMaxX "nan m"
attr unit m
par test.visualizer.sceneVisualizer sceneMaxY "nan m"
attr unit m
par test.visualizer.sceneVisualizer sceneMaxZ "nan m"
attr unit m
par test.visualizer.sceneVisualizer zIndex 0
par test.visualizer.sceneVisualizer viewAngle "\"x right y down z out\""
attr mutable ""
par test.visualizer.sceneVisualizer viewScale "\"1 1\""
attr mutable ""
par test.visualizer.sceneVisualizer viewTranslation "\"0 0\""
attr mutable ""
par test.visualizer.sceneVisualizer descriptionFigure "\"\""
par test.visualizer.physicalEnvironmentVisualizer typename "\"inet.visualizer.canvas.environment.PhysicalEnvironmentCanvasVisualizer\""
par test.visualizer.physicalEnvironmentVisualizer visualizationTargetModule "\"^.^\""
par test.visualizer.physicalEnvironmentVisualizer visualizationSubjectModule "\"^.^\""
par test.visualizer.physicalEnvironmentVisualizer tags "\"\""
par test.visualizer.physicalEnvironmentVisualizer physicalEnvironmentModule "\"physicalEnvironment\""
par test.visualizer.physicalEnvironmentVisualizer displayObjects true
par test.visualizer.physicalEnvironmentVisualizer zIndex 0
par test.visualizer.networkNodeVisualizer typename "\"inet.visualizer.canvas.scene.NetworkNodeCanvasVisualizer\""
par test.visualizer.networkNodeVisualizer visualizationTargetModule "\"^.^\""
par test.visualizer.networkNodeVisualizer visualizationSubjectModule "\"^.^\""
par test.visualizer.networkNodeVisualizer tags "\"\""
par test.visualizer.networkNodeVisualizer nodeFilter "\"*\""
attr mutable ""
par test.visualizer.networkNodeVisualizer annotationSpacing 4
par test.visualizer.networkNodeVisualizer placementPenalty 10
par test.visualizer.networkNodeVisualizer zIndex 0
par test.visualizer.networkConnectionVisualizer typename "\"inet.visualizer.canvas.scene.NetworkConnectionCanvasVisualizer\""
par test.visualizer.networkConnectionVisualizer visualizationTargetModule "\"^.^\""
par test.visualizer.networkConnectionVisualizer visualizationSubjectModule "\"^.^\""
par test.visualizer.networkConnectionVisualizer tags "\"\""
par test.visualizer.networkConnectionVisualizer displayNetworkConnections true
par test.visualizer.networkConnectionVisualizer nodeFilter "\"\""
attr mutable ""
par test.visualizer.networkConnectionVisualizer lineColor "\"black\""
par test.visualizer.networkConnectionVisualizer lineStyle "\"solid\""
par test.visualizer.networkConnectionVisualizer lineWidth 1
par test.visualizer.networkConnectionVisualizer zIndex 0
par test.visualizer.mobilityVisualizer typename "\"inet.visualizer.canvas.mobility.MobilityCanvasVisualizer\""
par test.visualizer.mobilityVisualizer visualizationTargetModule "\"^.^\""
par test.visualizer.mobilityVisualizer visualizationSubjectModule "\"^.^\""
par test.visualizer.mobilityVisualizer tags "\"\""
par test.visualizer.mobilityVisualizer networkNodeVisualizerModule "\"^.networkNodeVisualizer\""
par test.visualizer.mobilityVisualizer displayMobility true
par test.visualizer.mobilityVisualizer animationSpeed 0
par test.visualizer.mobilityVisualizer moduleFilter "\"**.mobility\""
attr mutable ""
par test.visualizer.mobilityVisualizer displayPositions false
par test.visualizer.mobilityVisualizer positionCircleRadius 4
par test.visualizer.mobilityVisualizer positionCircleLineWidth 1
par test.visualizer.mobilityVisualizer positionCircleLineColor "\"dark\""
attr enum light,dark
par test.visualizer.mobilityVisualizer positionCircleFillColor "\"dark\""
attr enum light,dark
par test.visualizer.mobilityVisualizer displayOrientations false
par test.visualizer.mobilityVisualizer orientationPieRadius 32
par test.visualizer.mobilityVisualizer orientationPieSize 0.2
par test.visualizer.mobilityVisualizer orientationPieOpacity 0.25
par test.visualizer.mobilityVisualizer orientationLineColor "\"black\""
par test.visualizer.mobilityVisualizer orientationLineStyle "\"solid\""
par test.visualizer.mobilityVisualizer orientationLineWidth 1
par test.visualizer.mobilityVisualizer orientationFillColor "\"blue\""
par test.visualizer.mobilityVisualizer displayVelocities false
par test.visualizer.mobilityVisualizer velocityArrowScale 1
par test.visualizer.mobilityVisualizer velocityLineColor "\"black\""
par test.visualizer.mobilityVisualizer velocityLineStyle "\"solid\""
par test.visualizer.mobilityVisualizer velocityLineWidth 1
par test.visualizer.mobilityVisualizer displayMovementTrails false
par test.visualizer.mobilityVisualizer movementTrailLineColor "\"dark\""
attr enum light,dark
par test.visualizer.mobilityVisualizer movementTrailLineStyle "\"solid\""
par test.visualizer.mobilityVisualizer movementTrailLineWidth 1
par test.visualizer.mobilityVisualizer trailLength 100
par test.visualizer.mobilityVisualizer zIndex 0
par test.visualizer.statisticVisualizer typename "\"inet.visualizer.canvas.common.StatisticCanvasVisualizer\""
par test.visualizer.statisticVisualizer visualizationTargetModule "\"^.^\""
par test.visualizer.statisticVisualizer visualizationSubjectModule "\"^.^\""
par test.visualizer.statisticVisualizer tags "\"\""
par test.visualizer.statisticVisualizer networkNodeVisualizerModule "\"^.networkNodeVisualizer\""
par test.visualizer.statisticVisualizer displayStatistics true
par test.visualizer.statisticVisualizer signalName "\"\""
par test.visualizer.statisticVisualizer statisticName "\"\""
par test.visualizer.statisticVisualizer statisticUnit "\"\""
par test.visualizer.statisticVisualizer statisticExpression "\"\""
par test.visualizer.statisticVisualizer sourceFilter "\"**\""
attr mutable ""
par test.visualizer.statisticVisualizer format "\"%n: %v %u\""
attr mutable ""
par test.visualizer.statisticVisualizer unit "\"\""
par test.visualizer.statisticVisualizer font "\"<default>\""
par test.visualizer.statisticVisualizer textColor "\"black\""
par test.visualizer.statisticVisualizer backgroundColor "\"white\""
par test.visualizer.statisticVisualizer opacity 1
par test.visualizer.statisticVisualizer placementHint "\"top\""
par test.visualizer.statisticVisualizer placementPriority 0
par test.visualizer.statisticVisualizer zIndex 10
par test.visualizer.statisticVisualizer propertyName "\"\""
par test.visualizer.statisticVisualizer propertyIndex "\"\""
par test.visualizer.infoVisualizer typename "\"inet.visualizer.canvas.common.InfoCanvasVisualizer\""
par test.visualizer.infoVisualizer visualizationTargetModule "\"^.^\""
par test.visualizer.infoVisualizer visualizationSubjectModule "\"^.^\""
par test.visualizer.infoVisualizer tags "\"\""
par test.visualizer.infoVisualizer networkNodeVisualizerModule "\"^.networkNodeVisualizer\""
par test.visualizer.infoVisualizer displayInfos true
par test.visualizer.infoVisualizer modules "\"\""
attr mutable ""
par test.visualizer.infoVisualizer format "\"%t\""
attr mutable ""
par test.visualizer.infoVisualizer font "\"<default>\""
par test.visualizer.infoVisualizer textColor "\"black\""
par test.visualizer.infoVisualizer backgroundColor "\"white\""
par test.visualizer.infoVisualizer opacity 1
par test.visualizer.infoVisualizer placementHint "\"top\""
par test.visualizer.infoVisualizer placementPriority 0
par test.visualizer.infoVisualizer zIndex 10
par test.visualizer.energyStorageVisualizer typename "\"inet.visualizer.canvas.power.EnergyStorageCanvasVisualizer\""
par test.visualizer.energyStorageVisualizer visualizationTargetModule "\"^.^\""
par test.visualizer.energyStorageVisualizer visualizationSubjectModule "\"^.^\""
par test.visualizer.energyStorageVisualizer tags "\"\""
par test.visualizer.energyStorageVisualizer networkNodeVisualizerModule "\"^.networkNodeVisualizer\""
par test.visualizer.energyStorageVisualizer displayEnergyStorages false
par test.visualizer.energyStorageVisualizer energyStorageFilter "\"**\""
par test.visualizer.energyStorageVisualizer color "\"green\""
par test.visualizer.energyStorageVisualizer width 8
par test.visualizer.energyStorageVisualizer height 24
par test.visualizer.energyStorageVisualizer spacing 2
par test.visualizer.energyStorageVisualizer placementHint "\"right\""
par test.visualizer.energyStorageVisualizer placementPriority 0
par test.visualizer.energyStorageVisualizer zIndex 10
par test.visualizer.mediumVisualizer typename "\"inet.visualizer.canvas.physicallayer.MediumCanvasVisualizer\""
par test.visualizer.mediumVisualizer visualizationTargetModule "\"^.^\""
par test.visualizer.mediumVisualizer visualizationSubjectModule "\"^.^\""
par test.visualizer.mediumVisualizer tags "\"\""
par test.visualizer.mediumVisualizer mediumModule "\"radioMedium\""
par test.visualizer.mediumVisualizer networkNodeVisualizerModule "\"^.networkNodeVisualizer\""
par test.visualizer.mediumVisualizer nodeFilter "\"*\""
attr mutable ""
par test.visualizer.mediumVisualizer interfaceFilter "\"*\""
attr mutable ""
par test.visualizer.mediumVisualizer packetFilter "(omnetpp::cValueHolder)holder: \"*\""
attr mutable ""
par test.visualizer.mediumVisualizer displaySignals false
par test.visualizer.mediumVisualizer signalColor "\"dark\""
attr enum light,dark
par test.visualizer.mediumVisualizer signalPropagationAnimationSpeed "nan "
attr mutable ""
par test.visualizer.mediumVisualizer signalPropagationAnimationTime 1s
attr unit s
par test.visualizer.mediumVisualizer signalPropagationAdditionalTime 0s
attr unit s
par test.visualizer.mediumVisualizer signalTransmissionAnimationSpeed "nan "
attr mutable ""
par test.visualizer.mediumVisualizer signalTransmissionAnimationTime 1s
attr unit s
par test.visualizer.mediumVisualizer signalAnimationSpeedChangeTimeMode "\"realTime\""
attr enum realTime,animationTime,simulationTime
par test.visualizer.mediumVisualizer signalAnimationSpeedChangeTime 1s
attr unit s
par test.visualizer.mediumVisualizer displaySignalDepartures false
par test.visualizer.mediumVisualizer signalDepartureImage "\"misc/signal_departure.png\""
par test.visualizer.mediumVisualizer signalDeparturePlacementHint "\"topCenter\""
par test.visualizer.mediumVisualizer signalDeparturePlacementPriority 1
par test.visualizer.mediumVisualizer displaySignalArrivals false
par test.visualizer.mediumVisualizer signalArrivalImage "\"misc/signal_arrival.png\""
par test.visualizer.mediumVisualizer signalArrivalPlacementHint "\"topCenter\""
par test.visualizer.mediumVisualizer signalArrivalPlacementPriority -1
par test.visualizer.mediumVisualizer displayCommunicationRanges false
par test.visualizer.mediumVisualizer communicationRangeLineColor "\"blue\""
par test.visualizer.mediumVisualizer communicationRangeLineStyle "\"solid\""
par test.visualizer.mediumVisualizer communicationRangeLineWidth 1
par test.visualizer.mediumVisualizer displayInterferenceRanges false
par test.visualizer.mediumVisualizer interferenceRangeLineColor "\"gray\""
par test.visualizer.mediumVisualizer interferenceRangeLineStyle "\"solid\""
par test.visualizer.mediumVisualizer interferenceRangeLineWidth 1
par test.visualizer.mediumVisualizer autoPowerAxis true
par test.visualizer.mediumVisualizer signalMinPower "inf dBmW"
attr unit dBmW
par test.visualizer.mediumVisualizer signalMaxPower 0dBmW
attr unit dBmW
par test.visualizer.mediumVisualizer signalMinPowerDensity "inf dBmWpMHz"
attr unit dBmWpMHz
par test.visualizer.mediumVisualizer signalMaxPowerDensity "-inf dBmWpMHz"
attr unit dBmWpMHz
par test.visualizer.mediumVisualizer autoTimeAxis true
par test.visualizer.mediumVisualizer signalMinTime 0s
attr unit s
par test.visualizer.mediumVisualizer signalMaxTime 0s
attr unit s
par test.visualizer.mediumVisualizer autoFrequencyAxis true
par test.visualizer.mediumVisualizer signalMinFrequency "inf Hz"
attr unit Hz
par test.visualizer.mediumVisualizer signalMaxFrequency "-inf Hz"
attr unit Hz
par test.visualizer.mediumVisualizer displayMainPowerDensityMap false
par test.visualizer.mediumVisualizer mainPowerDensityMapPixmapDensity 1
par test.visualizer.mediumVisualizer mainPowerDensityMapMinX 0
par test.visualizer.mediumVisualizer mainPowerDensityMapMaxX "nan "
par test.visualizer.mediumVisualizer mainPowerDensityMapMinY 0
par test.visualizer.mediumVisualizer mainPowerDensityMapMaxY "nan "
par test.visualizer.mediumVisualizer mainPowerDensityMapZ 0
par test.visualizer.mediumVisualizer mainPowerDensityMapFigureXTickCount 3
par test.visualizer.mediumVisualizer mainPowerDensityMapFigureYTickCount 3
par test.visualizer.mediumVisualizer displayPowerDensityMaps false
par test.visualizer.mediumVisualizer powerDensityMapMode "\"auto\""
attr enum total,signal,auto
par test.visualizer.mediumVisualizer powerDensityMapPixelMode "\"mean\""
attr enum sample,partition,mean
par test.visualizer.mediumVisualizer powerDensityMapApproximationSize 10
par test.visualizer.mediumVisualizer powerDensityMapCenterFrequency "nan Hz"
attr mutable ""
attr unit Hz
par test.visualizer.mediumVisualizer powerDensityMapBandwidth 0Hz
attr mutable ""
attr unit Hz
par test.visualizer.mediumVisualizer powerDensityMapFigureWidth 200
par test.visualizer.mediumVisualizer powerDensityMapFigureHeight 120
par test.visualizer.mediumVisualizer powerDensityMapPixmapWidth 200
par test.visualizer.mediumVisualizer powerDensityMapPixmapHeight 120
par test.visualizer.mediumVisualizer powerDensityMapZ 0
par test.visualizer.mediumVisualizer powerDensityMapFigureXTickCount 3
par test.visualizer.mediumVisualizer powerDensityMapFigureYTickCount 3
par test.visualizer.mediumVisualizer displaySpectrums false
par test.visualizer.mediumVisualizer spectrumMode "\"auto\""
attr enum total,signal,auto
par test.visualizer.mediumVisualizer spectrumFigureWidth 200
par test.visualizer.mediumVisualizer spectrumFigureHeight 120
par test.visualizer.mediumVisualizer spectrumFigureXTickCount 3
par test.visualizer.mediumVisualizer spectrumFigureYTickCount 5
par test.visualizer.mediumVisualizer spectrumFigureInterpolationSize 5
par test.visualizer.mediumVisualizer spectrumPlacementHint "\"bottomCenter\""
par test.visualizer.mediumVisualizer spectrumPlacementPriority -1
par test.visualizer.mediumVisualizer displaySpectrograms false
par test.visualizer.mediumVisualizer spectrogramMode "\"auto\""
attr enum total,signal,auto
par test.visualizer.mediumVisualizer spectrogramPixelMode "\"mean\""
attr enum sample,partition,mean
par test.visualizer.mediumVisualizer spectrogramFigureWidth 200
par test.visualizer.mediumVisualizer spectrogramFigureHeight 120
par test.visualizer.mediumVisualizer spectrogramPixmapWidth 200
par test.visualizer.mediumVisualizer spectrogramPixmapHeight 120
par test.visualizer.mediumVisualizer spectrogramFigureXTickCount 3
par test.visualizer.mediumVisualizer spectrogramFigureYTickCount 5
par test.visualizer.mediumVisualizer spectrogramPlacementHint "\"bottomCenter\""
par test.visualizer.mediumVisualizer spectrogramPlacementPriority -1
par test.visualizer.mediumVisualizer zIndex 0
par test.visualizer.mediumVisualizer signalShape "\"ring\""
attr enum ring,sphere
par test.visualizer.mediumVisualizer signalOpacity 0.5
par test.visualizer.mediumVisualizer signalRingCount 20
par test.visualizer.mediumVisualizer signalRingSize 50m
attr unit m
par test.visualizer.mediumVisualizer signalFadingDistance 50m
attr unit m
par test.visualizer.mediumVisualizer signalFadingFactor 1.2
par test.visualizer.mediumVisualizer signalWaveCount 20
par test.visualizer.mediumVisualizer signalWaveLength 50m
attr unit m
par test.visualizer.mediumVisualizer signalWaveWidth 10m
attr unit m
par test.visualizer.mediumVisualizer signalWaveFadingAnimationSpeedFactor 1
par test.visualizer.mediumVisualizer displayCommunicationHeat false
par test.visualizer.obstacleLossVisualizer typename "\"inet.visualizer.canvas.physicallayer.TracingObstacleLossCanvasVisualizer\""
par test.visualizer.obstacleLossVisualizer visualizationTargetModule "\"^.^\""
par test.visualizer.obstacleLossVisualizer visualizationSubjectModule "\"^.^\""
par test.visualizer.obstacleLossVisualizer tags "\"\""
par test.visualizer.obstacleLossVisualizer displayIntersections false
par test.visualizer.obstacleLossVisualizer intersectionLineColor "\"red\""
par test.visualizer.obstacleLossVisualizer intersectionLineStyle "\"solid\""
par test.visualizer.obstacleLossVisualizer intersectionLineWidth 1
par test.visualizer.obstacleLossVisualizer displayFaceNormalVectors false
par test.visualizer.obstacleLossVisualizer faceNormalLineColor "\"grey\""
par test.visualizer.obstacleLossVisualizer faceNormalLineStyle "\"solid\""
par test.visualizer.obstacleLossVisualizer faceNormalLineWidth 1
par test.visualizer.obstacleLossVisualizer fadeOutMode "\"realTime\""
attr enum realTime,animationTime,simulationTime
par test.visualizer.obstacleLossVisualizer fadeOutTime 1s
attr unit s
par test.visualizer.obstacleLossVisualizer fadeOutAnimationSpeed 0
par test.visualizer.obstacleLossVisualizer zIndex 0
par test.visualizer.packetDropVisualizer typename "\"inet.visualizer.canvas.common.PacketDropCanvasVisualizer\""
par test.visualizer.packetDropVisualizer visualizationTargetModule "\"^.^\""
par test.visualizer.packetDropVisualizer visualizationSubjectModule "\"^.^\""
par test.visualizer.packetDropVisualizer tags "\"\""
par test.visualizer.packetDropVisualizer displayPacketDrops false
par test.visualizer.packetDropVisualizer nodeFilter "\"*\""
attr mutable ""
par test.visualizer.packetDropVisualizer interfaceFilter "\"*\""
attr mutable ""
par test.visualizer.packetDropVisualizer packetFilter "(omnetpp::cValueHolder)holder: \"*\""
attr mutable ""
par test.visualizer.packetDropVisualizer detailsFilter "\"*\""
attr mutable ""
par test.visualizer.packetDropVisualizer icon "\"msg/packet_s\""
par test.visualizer.packetDropVisualizer iconTintAmount 1
par test.visualizer.packetDropVisualizer iconTintColor "\"dark\""
par test.visualizer.packetDropVisualizer labelFormat "\"%n\""
attr mutable ""
par test.visualizer.packetDropVisualizer labelFont "\"<default>\""
par test.visualizer.packetDropVisualizer labelColor "\"black\""
par test.visualizer.packetDropVisualizer fadeOutMode "\"realTime\""
attr enum realTime,animationTime,simulationTime
par test.visualizer.packetDropVisualizer fadeOutTime 1s
attr unit s
par test.visualizer.packetDropVisualizer fadeOutAnimationSpeed 0
par test.visualizer.packetDropVisualizer zIndex 10
par test.visualizer.packetDropVisualizer dx 32
par test.visualizer.packetDropVisualizer dy 64
par test.visualizer.packetFlowVisualizer typename "\"inet.visualizer.canvas.flow.PacketFlowCanvasVisualizer\""
par test.visualizer.packetFlowVisualizer visualizationTargetModule "\"^.^\""
par test.visualizer.packetFlowVisualizer visualizationSubjectModule "\"^.^\""
par test.visualizer.packetFlowVisualizer tags "\"\""
par test.visualizer.packetFlowVisualizer displayRoutes false
par test.visualizer.packetFlowVisualizer startPathSignal "\"packetFlowStarted\""
par test.visualizer.packetFlowVisualizer extendPathSignal "\"packetReceivedFromLower\""
par test.visualizer.packetFlowVisualizer endPathSignal "\"packetFlowEnded\""
par test.visualizer.packetFlowVisualizer nodeFilter "\"*\""
attr mutable ""
par test.visualizer.packetFlowVisualizer packetFilter "(omnetpp::cValueHolder)holder: \"*\""
attr mutable ""
par test.visualizer.packetFlowVisualizer lineColor "\"dark\""
attr enum light,dark
par test.visualizer.packetFlowVisualizer lineStyle "\"dashed\""
par test.visualizer.packetFlowVisualizer lineWidth 3
par test.visualizer.packetFlowVisualizer lineSmooth false
par test.visualizer.packetFlowVisualizer lineShift 16
par test.visualizer.packetFlowVisualizer lineShiftMode "\"normal\""
par test.visualizer.packetFlowVisualizer lineContactSpacing 3
par test.visualizer.packetFlowVisualizer lineContactMode "\"rectangular\""
attr enum circular,rectangular
par test.visualizer.packetFlowVisualizer labelFormat "\"%L %p pk (%l)\""
par test.visualizer.packetFlowVisualizer labelFont "\"<default>, 8px\""
par test.visualizer.packetFlowVisualizer labelColor "\"\""
par test.visualizer.packetFlowVisualizer fadeOutMode "\"realTime\""
attr enum realTime,animationTime,simulationTime
par test.visualizer.packetFlowVisualizer fadeOutTime 0s
attr unit s
par test.visualizer.packetFlowVisualizer fadeOutAnimationSpeed 0
par test.visualizer.packetFlowVisualizer zIndex 4
par test.visualizer.queueVisualizer typename "\"inet.visualizer.canvas.common.QueueCanvasVisualizer\""
par test.visualizer.queueVisualizer visualizationTargetModule "\"^.^\""
par test.visualizer.queueVisualizer visualizationSubjectModule "\"^.^\""
par test.visualizer.queueVisualizer tags "\"\""
par test.visualizer.queueVisualizer networkNodeVisualizerModule "\"^.networkNodeVisualizer\""
par test.visualizer.queueVisualizer displayQueues false
par test.visualizer.queueVisualizer queueFilter "\"**\""
par test.visualizer.queueVisualizer color "\"blue\""
par test.visualizer.queueVisualizer width 8
par test.visualizer.queueVisualizer height 24
par test.visualizer.queueVisualizer spacing 2
par test.visualizer.queueVisualizer placementHint "\"right\""
par test.visualizer.queueVisualizer placementPriority 0
par test.visualizer.queueVisualizer zIndex 10
par test.visualizer.gateScheduleVisualizer typename "\"inet.visualizer.canvas.common.GateScheduleCanvasVisualizer\""
par test.visualizer.gateScheduleVisualizer visualizationTargetModule "\"^.^\""
par test.visualizer.gateScheduleVisualizer visualizationSubjectModule "\"^.^\""
par test.visualizer.gateScheduleVisualizer tags "\"\""
par test.visualizer.gateScheduleVisualizer networkNodeVisualizerModule "\"^.networkNodeVisualizer\""
par test.visualizer.gateScheduleVisualizer displayGateSchedules false
par test.visualizer.gateScheduleVisualizer labelFormat "\"%i %D\""
par test.visualizer.gateScheduleVisualizer gateFilter "\"**\""
par test.visualizer.gateScheduleVisualizer width 100
par test.visualizer.gateScheduleVisualizer height 8
par test.visualizer.gateScheduleVisualizer spacing 2
par test.visualizer.gateScheduleVisualizer placementHint "\"right\""
par test.visualizer.gateScheduleVisualizer placementPriority 0
par test.visualizer.gateScheduleVisualizer displayDuration 0s
attr mutable ""
attr unit s
par test.visualizer.gateScheduleVisualizer currentTimePosition 50
par test.visualizer.gateScheduleVisualizer zIndex 10
par test.visualizer.radioVisualizer typename "\"inet.visualizer.canvas.physicallayer.RadioCanvasVisualizer\""
par test.visualizer.radioVisualizer visualizationTargetModule "\"^.^\""
par test.visualizer.radioVisualizer visualizationSubjectModule "\"^.^\""
par test.visualizer.radioVisualizer tags "\"\""
par test.visualizer.radioVisualizer networkNodeVisualizerModule "\"^.networkNodeVisualizer\""
par test.visualizer.radioVisualizer displayRadios false
par test.visualizer.radioVisualizer displayRadioMode true
par test.visualizer.radioVisualizer displayReceptionState true
par test.visualizer.radioVisualizer displayTransmissionState true
par test.visualizer.radioVisualizer displayAntennaLobes false
par test.visualizer.radioVisualizer radioFilter "\"**\""
attr mutable ""
par test.visualizer.radioVisualizer radioModeImages "\"block/process_vs block/timer_vs block/wrx_vs block/wtx_vs block/wrxtx_vs block/cogwheel_vs\""
par test.visualizer.radioVisualizer receptionStateImages "\"- - misc/receiving misc/receiving\""
par test.visualizer.radioVisualizer transmissionStateImages "\"- - misc/transmitting\""
par test.visualizer.radioVisualizer width 16
par test.visualizer.radioVisualizer height 16
par test.visualizer.radioVisualizer placementHint "\"bottomRight\""
par test.visualizer.radioVisualizer placementPriority 0
par test.visualizer.radioVisualizer antennaLobeNormalize false
par test.visualizer.radioVisualizer antennaLobeRelativeLabels false
par test.visualizer.radioVisualizer antennaLobePlaneGlobal true
par test.visualizer.radioVisualizer antennaLobePlane "\"view\""
attr enum view,xy,xz,yz
par test.visualizer.radioVisualizer antennaLobeMode "\"logarithmic\""
attr enum logarithmic,linear
par test.visualizer.radioVisualizer antennaLobeLogarithmicBase 10
par test.visualizer.radioVisualizer antennaLobeLogarithmicScale 100
par test.visualizer.radioVisualizer antennaLobeRadius 100
par test.visualizer.radioVisualizer antennaLobeStep 10deg
attr unit deg
par test.visualizer.radioVisualizer antennaLobeOpacity 0.25
par test.visualizer.radioVisualizer antennaLobeLineSmooth true
par test.visualizer.radioVisualizer antennaLobeLineColor "\"black\""
par test.visualizer.radioVisualizer antennaLobeLineStyle "\"solid\""
par test.visualizer.radioVisualizer antennaLobeLineWidth 1
par test.visualizer.radioVisualizer antennaLobeFillColor "\"white\""
par test.visualizer.radioVisualizer zIndex 10
par test.visualizer.physicalLinkVisualizer typename "\"inet.visualizer.canvas.physicallayer.PhysicalLinkCanvasVisualizer\""
par test.visualizer.physicalLinkVisualizer visualizationTargetModule "\"^.^\""
par test.visualizer.physicalLinkVisualizer visualizationSubjectModule "\"^.^\""
par test.visualizer.physicalLinkVisualizer tags "\"\""
par test.visualizer.physicalLinkVisualizer displayLinks false
par test.visualizer.physicalLinkVisualizer activityLevel "\"service\""
attr enum service,peer,protocol
par test.visualizer.physicalLinkVisualizer nodeFilter "\"*\""
attr mutable ""
par test.visualizer.physicalLinkVisualizer interfaceFilter "\"*\""
attr mutable ""
par test.visualizer.physicalLinkVisualizer packetFilter "(omnetpp::cValueHolder)holder: \"*\""
attr mutable ""
par test.visualizer.physicalLinkVisualizer lineColor "\"olive\""
par test.visualizer.physicalLinkVisualizer lineStyle "\"dotted\""
par test.visualizer.physicalLinkVisualizer lineWidth 3
par test.visualizer.physicalLinkVisualizer lineShift 16
par test.visualizer.physicalLinkVisualizer lineShiftMode "\"normal\""
par test.visualizer.physicalLinkVisualizer lineContactSpacing 3
par test.visualizer.physicalLinkVisualizer lineContactMode "\"rectangular\""
attr enum circular,rectangular
par test.visualizer.physicalLinkVisualizer labelFormat "\"%n\""
par test.visualizer.physicalLinkVisualizer labelFont "\"<default>, 8px\""
par test.visualizer.physicalLinkVisualizer labelColor "\"olive\""
par test.visualizer.physicalLinkVisualizer fadeOutMode "\"realTime\""
attr enum realTime,animationTime,simulationTime
par test.visualizer.physicalLinkVisualizer fadeOutTime 1s
attr unit s
par test.visualizer.physicalLinkVisualizer fadeOutAnimationSpeed 0
par test.visualizer.physicalLinkVisualizer holdAnimationTime 0s
attr unit s
par test.visualizer.physicalLinkVisualizer zIndex 1
par test.visualizer.interfaceTableVisualizer typename "\"inet.visualizer.canvas.linklayer.InterfaceTableCanvasVisualizer\""
par test.visualizer.interfaceTableVisualizer visualizationTargetModule "\"^.^\""
par test.visualizer.interfaceTableVisualizer visualizationSubjectModule "\"^.^\""
par test.visualizer.interfaceTableVisualizer tags "\"\""
par test.visualizer.interfaceTableVisualizer networkNodeVisualizerModule "\"^.networkNodeVisualizer\""
par test.visualizer.interfaceTableVisualizer displayInterfaceTables false
par test.visualizer.interfaceTableVisualizer displayWiredInterfacesAtConnections true
par test.visualizer.interfaceTableVisualizer displayBackground false
par test.visualizer.interfaceTableVisualizer nodeFilter "\"*\""
attr mutable ""
par test.visualizer.interfaceTableVisualizer interfaceFilter "\"not(lo*)\""
attr mutable ""
par test.visualizer.interfaceTableVisualizer format "\"%N %\\\\%a%/%l\""
attr mutable ""
par test.visualizer.interfaceTableVisualizer placementHint "\"top\""
par test.visualizer.interfaceTableVisualizer placementPriority 0
par test.visualizer.interfaceTableVisualizer font "\"<default>\""
par test.visualizer.interfaceTableVisualizer textColor "\"#005030\""
par test.visualizer.interfaceTableVisualizer backgroundColor "\"white\""
par test.visualizer.interfaceTableVisualizer opacity 1
par test.visualizer.interfaceTableVisualizer zIndex 10
par test.visualizer.dataLinkVisualizer typename "\"inet.visualizer.canvas.linklayer.DataLinkCanvasVisualizer\""
par test.visualizer.dataLinkVisualizer visualizationTargetModule "\"^.^\""
par test.visualizer.dataLinkVisualizer visualizationSubjectModule "\"^.^\""
par test.visualizer.dataLinkVisualizer tags "\"\""
par test.visualizer.dataLinkVisualizer displayLinks false
par test.visualizer.dataLinkVisualizer activityLevel "\"service\""
attr enum service,peer,protocol
par test.visualizer.dataLinkVisualizer nodeFilter "\"*\""
attr mutable ""
par test.visualizer.dataLinkVisualizer interfaceFilter "\"*\""
attr mutable ""
par test.visualizer.dataLinkVisualizer packetFilter "(omnetpp::cValueHolder)holder: \"*\""
attr mutable ""
par test.visualizer.dataLinkVisualizer lineColor "\"darkcyan\""
par test.visualizer.dataLinkVisualizer lineStyle "\"solid\""
par test.visualizer.dataLinkVisualizer lineWidth 3
par test.visualizer.dataLinkVisualizer lineShift 16
par test.visualizer.dataLinkVisualizer lineShiftMode "\"normal\""
par test.visualizer.dataLinkVisualizer lineContactSpacing 3
par test.visualizer.dataLinkVisualizer lineContactMode "\"rectangular\""
attr enum circular,rectangular
par test.visualizer.dataLinkVisualizer labelFormat "\"%n\""
par test.visualizer.dataLinkVisualizer labelFont "\"<default>, 8px\""
par test.visualizer.dataLinkVisualizer labelColor "\"darkcyan\""
par test.visualizer.dataLinkVisualizer fadeOutMode "\"realTime\""
attr enum realTime,animationTime,simulationTime
par test.visualizer.dataLinkVisualizer fadeOutTime 1s
attr unit s
par test.visualizer.dataLinkVisualizer fadeOutAnimationSpeed 0
par test.visualizer.dataLinkVisualizer holdAnimationTime 0s
attr unit s
par test.visualizer.dataLinkVisualizer zIndex 2
par test.visualizer.linkBreakVisualizer typename "\"inet.visualizer.canvas.linklayer.LinkBreakCanvasVisualizer\""
par test.visualizer.linkBreakVisualizer visualizationTargetModule "\"^.^\""
par test.visualizer.linkBreakVisualizer visualizationSubjectModule "\"^.^\""
par test.visualizer.linkBreakVisualizer tags "\"\""
par test.visualizer.linkBreakVisualizer displayLinkBreaks false
par test.visualizer.linkBreakVisualizer nodeFilter "\"*\""
attr mutable ""
par test.visualizer.linkBreakVisualizer interfaceFilter "\"*\""
attr mutable ""
par test.visualizer.linkBreakVisualizer packetFilter "(omnetpp::cValueHolder)holder: \"*\""
attr mutable ""
par test.visualizer.linkBreakVisualizer icon "\"status/stop\""
par test.visualizer.linkBreakVisualizer iconTintAmount 0
par test.visualizer.linkBreakVisualizer iconTintColor "\"\""
par test.visualizer.linkBreakVisualizer fadeOutMode "\"realTime\""
attr enum realTime,animationTime,simulationTime
par test.visualizer.linkBreakVisualizer fadeOutTime 1s
attr unit s
par test.visualizer.linkBreakVisualizer fadeOutAnimationSpeed 0
par test.visualizer.linkBreakVisualizer zIndex 2
par test.visualizer.ieee80211Visualizer typename "\"inet.visualizer.canvas.linklayer.Ieee80211CanvasVisualizer\""
par test.visualizer.ieee80211Visualizer visualizationTargetModule "\"^.^\""
par test.visualizer.ieee80211Visualizer visualizationSubjectModule "\"^.^\""
par test.visualizer.ieee80211Visualizer tags "\"\""
par test.visualizer.ieee80211Visualizer networkNodeVisualizerModule "\"^.networkNodeVisualizer\""
par test.visualizer.ieee80211Visualizer displayAssociations false
par test.visualizer.ieee80211Visualizer nodeFilter "\"*\""
attr mutable ""
par test.visualizer.ieee80211Visualizer interfaceFilter "\"*\""
attr mutable ""
par test.visualizer.ieee80211Visualizer minPower -85dBm
attr unit dBm
par test.visualizer.ieee80211Visualizer maxPower -50dBm
attr unit dBm
par test.visualizer.ieee80211Visualizer icons "\"misc/signal_power_0 misc/signal_power_1 misc/signal_power_2 misc/signal_power_3\""
par test.visualizer.ieee80211Visualizer iconColor "\"dark\""
attr enum light,dark
par test.visualizer.ieee80211Visualizer labelFont "\"<default>\""
par test.visualizer.ieee80211Visualizer labelColor "\"black\""
par test.visualizer.ieee80211Visualizer placementHint "\"top\""
par test.visualizer.ieee80211Visualizer placementPriority 0
par test.visualizer.ieee80211Visualizer zIndex 2
par test.visualizer.networkRouteVisualizer typename "\"inet.visualizer.canvas.networklayer.NetworkRouteCanvasVisualizer\""
par test.visualizer.networkRouteVisualizer visualizationTargetModule "\"^.^\""
par test.visualizer.networkRouteVisualizer visualizationSubjectModule "\"^.^\""
par test.visualizer.networkRouteVisualizer tags "\"\""
par test.visualizer.networkRouteVisualizer displayRoutes false
par test.visualizer.networkRouteVisualizer startPathSignal "\"packetReceivedFromUpper\""
par test.visualizer.networkRouteVisualizer extendPathSignal "\"packetReceivedFromLower\""
par test.visualizer.networkRouteVisualizer endPathSignal "\"packetSentToUpper\""
par test.visualizer.networkRouteVisualizer nodeFilter "\"*\""
attr mutable ""
par test.visualizer.networkRouteVisualizer packetFilter "(omnetpp::cValueHolder)holder: \"*\""
attr mutable ""
par test.visualizer.networkRouteVisualizer lineColor "\"dark\""
attr enum light,dark
par test.visualizer.networkRouteVisualizer lineStyle "\"solid\""
par test.visualizer.networkRouteVisualizer lineWidth 3
par test.visualizer.networkRouteVisualizer lineSmooth false
par test.visualizer.networkRouteVisualizer lineShift 16
par test.visualizer.networkRouteVisualizer lineShiftMode "\"normal\""
par test.visualizer.networkRouteVisualizer lineContactSpacing 3
par test.visualizer.networkRouteVisualizer lineContactMode "\"rectangular\""
attr enum circular,rectangular
par test.visualizer.networkRouteVisualizer labelFormat "\"%n\""
par test.visualizer.networkRouteVisualizer labelFont "\"<default>, 8px\""
par test.visualizer.networkRouteVisualizer labelColor "\"\""
par test.visualizer.networkRouteVisualizer fadeOutMode "\"realTime\""
attr enum realTime,animationTime,simulationTime
par test.visualizer.networkRouteVisualizer fadeOutTime 1s
attr unit s
par test.visualizer.networkRouteVisualizer fadeOutAnimationSpeed 0
par test.visualizer.networkRouteVisualizer zIndex 3
par test.visualizer.routingTableVisualizer typename "\"inet.visualizer.canvas.networklayer.RoutingTableCanvasVisualizer\""
par test.visualizer.routingTableVisualizer visualizationTargetModule "\"^.^\""
par test.visualizer.routingTableVisualizer visualizationSubjectModule "\"^.^\""
par test.visualizer.routingTableVisualizer tags "\"\""
par test.visualizer.routingTableVisualizer displayRoutingTables false
par test.visualizer.routingTableVisualizer displayRoutesIndividually true
par test.visualizer.routingTableVisualizer displayLabels true
par test.visualizer.routingTableVisualizer destinationFilter "\"*\""
attr mutable ""
par test.visualizer.routingTableVisualizer nodeFilter "\"*\""
attr mutable ""
par test.visualizer.routingTableVisualizer lineColor "\"black\""
par test.visualizer.routingTableVisualizer lineStyle "\"solid\""
par test.visualizer.routingTableVisualizer lineWidth 2
par test.visualizer.routingTableVisualizer lineShift 16
par test.visualizer.routingTableVisualizer lineShiftMode "\"normal\""
par test.visualizer.routingTableVisualizer lineContactSpacing 3
par test.visualizer.routingTableVisualizer lineContactMode "\"rectangular\""
attr enum circular,rectangular
par test.visualizer.routingTableVisualizer labelFormat "\"%d/%m -> %g (%n)\""
attr mutable ""
par test.visualizer.routingTableVisualizer labelFont "\"<default>, 8px\""
par test.visualizer.routingTableVisualizer labelColor "\"black\""
par test.visualizer.routingTableVisualizer zIndex 0
par test.visualizer.transportRouteVisualizer typename "\"inet.visualizer.canvas.transportlayer.TransportRouteCanvasVisualizer\""
par test.visualizer.transportRouteVisualizer visualizationTargetModule "\"^.^\""
par test.visualizer.transportRouteVisualizer visualizationSubjectModule "\"^.^\""
par test.visualizer.transportRouteVisualizer tags "\"\""
par test.visualizer.transportRouteVisualizer displayRoutes false
par test.visualizer.transportRouteVisualizer startPathSignal "\"packetReceivedFromUpper\""
par test.visualizer.transportRouteVisualizer extendPathSignal "\"packetReceivedFromLower\""
par test.visualizer.transportRouteVisualizer endPathSignal "\"packetSentToUpper\""
par test.visualizer.transportRouteVisualizer nodeFilter "\"*\""
attr mutable ""
par test.visualizer.transportRouteVisualizer packetFilter "(omnetpp::cValueHolder)holder: \"*\""
attr mutable ""
par test.visualizer.transportRouteVisualizer lineColor "\"dark\""
attr enum light,dark
par test.visualizer.transportRouteVisualizer lineStyle "\"solid\""
par test.visualizer.transportRouteVisualizer lineWidth 3
par test.visualizer.transportRouteVisualizer lineSmooth false
par test.visualizer.transportRouteVisualizer lineShift 16
par test.visualizer.transportRouteVisualizer lineShiftMode "\"normal\""
par test.visualizer.transportRouteVisualizer lineContactSpacing 3
par test.visualizer.transportRouteVisualizer lineContactMode "\"rectangular\""
attr enum circular,rectangular
par test.visualizer.transportRouteVisualizer labelFormat "\"%n\""
par test.visualizer.transportRouteVisualizer labelFont "\"<default>, 8px\""
par test.visualizer.transportRouteVisualizer labelColor "\"\""
par test.visualizer.transportRouteVisualizer fadeOutMode "\"realTime\""
attr enum realTime,animationTime,simulationTime
par test.visualizer.transportRouteVisualizer fadeOutTime 1s
attr unit s
par test.visualizer.transportRouteVisualizer fadeOutAnimationSpeed 0
par test.visualizer.transportRouteVisualizer zIndex 4
par test.visualizer.transportConnectionVisualizer typename "\"inet.visualizer.canvas.transportlayer.TransportConnectionCanvasVisualizer\""
par test.visualizer.transportConnectionVisualizer visualizationTargetModule "\"^.^\""
par test.visualizer.transportConnectionVisualizer visualizationSubjectModule "\"^.^\""
par test.visualizer.transportConnectionVisualizer tags "\"\""
par test.visualizer.transportConnectionVisualizer networkNodeVisualizerModule "\"^.networkNodeVisualizer\""
par test.visualizer.transportConnectionVisualizer displayTransportConnections false
par test.visualizer.transportConnectionVisualizer sourceNodeFilter "\"*\""
attr mutable ""
par test.visualizer.transportConnectionVisualizer sourcePortFilter "\"*\""
attr mutable ""
par test.visualizer.transportConnectionVisualizer destinationNodeFilter "\"*\""
attr mutable ""
par test.visualizer.transportConnectionVisualizer destinationPortFilter "\"*\""
attr mutable ""
par test.visualizer.transportConnectionVisualizer icon "\"misc/marker_s\""
par test.visualizer.transportConnectionVisualizer iconColor "\"dark\""
attr enum light,dark
par test.visualizer.transportConnectionVisualizer labelFont "\"<default>\""
par test.visualizer.transportConnectionVisualizer labelColor "\"black\""
par test.visualizer.transportConnectionVisualizer placementHint "\"top\""
par test.visualizer.transportConnectionVisualizer placementPriority 0
par test.visualizer.transportConnectionVisualizer zIndex 4
par test.visualizer.failureProtectionConfigurationVisualizer typename "\"inet.visualizer.canvas.configurator.FailureProtectionConfigurationCanvasVisualizer\""
par test.visualizer.failureProtectionConfigurationVisualizer visualizationTargetModule "\"^.^\""
par test.visualizer.failureProtectionConfigurationVisualizer visualizationSubjectModule "\"^.^\""
par test.visualizer.failureProtectionConfigurationVisualizer tags "\"\""
par test.visualizer.failureProtectionConfigurationVisualizer displayTrees false
par test.visualizer.failureProtectionConfigurationVisualizer lineColor "\"dark\""
attr enum light,dark
par test.visualizer.failureProtectionConfigurationVisualizer lineStyle "\"solid\""
par test.visualizer.failureProtectionConfigurationVisualizer lineWidth 3
par test.visualizer.failureProtectionConfigurationVisualizer lineSmooth false
par test.visualizer.failureProtectionConfigurationVisualizer lineShift 16
par test.visualizer.failureProtectionConfigurationVisualizer lineShiftMode "\"normal\""
par test.visualizer.failureProtectionConfigurationVisualizer lineContactSpacing 3
par test.visualizer.failureProtectionConfigurationVisualizer lineContactMode "\"rectangular\""
attr enum circular,rectangular
par test.visualizer.failureProtectionConfigurationVisualizer failureProtectionConfiguratorModule "\"failureProtectionConfigurator\""
par test.visualizer.failureProtectionConfigurationVisualizer streamFilter "\"*\""
par test.visualizer.failureProtectionConfigurationVisualizer zIndex 3
par test.visualizer.streamRedundancyConfigurationVisualizer typename "\"inet.visualizer.canvas.configurator.StreamRedundancyConfigurationCanvasVisualizer\""
par test.visualizer.streamRedundancyConfigurationVisualizer visualizationTargetModule "\"^.^\""
par test.visualizer.streamRedundancyConfigurationVisualizer visualizationSubjectModule "\"^.^\""
par test.visualizer.streamRedundancyConfigurationVisualizer tags "\"\""
par test.visualizer.streamRedundancyConfigurationVisualizer displayTrees false
par test.visualizer.streamRedundancyConfigurationVisualizer lineColor "\"dark\""
attr enum light,dark
par test.visualizer.streamRedundancyConfigurationVisualizer lineStyle "\"solid\""
par test.visualizer.streamRedundancyConfigurationVisualizer lineWidth 3
par test.visualizer.streamRedundancyConfigurationVisualizer lineSmooth false
par test.visualizer.streamRedundancyConfigurationVisualizer lineShift 16
par test.visualizer.streamRedundancyConfigurationVisualizer lineShiftMode "\"normal\""
par test.visualizer.streamRedundancyConfigurationVisualizer lineContactSpacing 3
par test.visualizer.streamRedundancyConfigurationVisualizer lineContactMode "\"rectangular\""
attr enum circular,rectangular
par test.visualizer.streamRedundancyConfigurationVisualizer streamRedundancyConfiguratorModule "\"streamRedundancyConfigurator\""
par test.visualizer.streamRedundancyConfigurationVisualizer streamFilter "\"*\""
par test.visualizer.streamRedundancyConfigurationVisualizer zIndex 3
par test.visualizer typename "\"inet.visualizer.canvas.integrated.IntegratedCanvasVisualizer\""
par test.leachNode[0].radioIn[0].channel typename "\"ned.IdealChannel\""
par test.leachNode[0].status typename "\"inet.common.lifecycle.NodeStatus\""
par test.leachNode[0].status initialStatus "\"UP\""
par test.leachNode[0].energyStorage typename "\"inet.power.storage.IdealEpEnergyStorage\""
scalar test.leachNode[0].energyStorage residualEnergyCapacity:last -0.010011504761936
attr interpolationmode linear
attr recordingmode last
attr source residualEnergyCapacityChanged
attr title "Residual energy capacity, last"
attr unit J
par test.leachNode[0].mobility typename "\"inet.mobility.static.StationaryMobility\""
par test.leachNode[0].mobility subjectModule "\"^\""
par test.leachNode[0].mobility coordinateSystemModule "\"\""
par test.leachNode[0].mobility displayStringTextFormat "\"p: %p\\nv: %v\""
attr mutable ""
par test.leachNode[0].mobility updateDisplayString true
par test.leachNode[0].mobility constraintAreaMinX 0m
attr unit m
par test.leachNode[0].mobility constraintAreaMinY 0m
attr unit m
par test.leachNode[0].mobility constraintAreaMinZ 0m
attr unit m
par test.leachNode[0].mobility constraintAreaMaxX 400m
attr unit m
par test.leachNode[0].mobility constraintAreaMaxY 400m
attr unit m
par test.leachNode[0].mobility constraintAreaMaxZ 0m
attr unit m
par test.leachNode[0].mobility initialX 219.525m
attr unit m
par test.leachNode[0].mobility initialY 237.138m
attr unit m
par test.leachNode[0].mobility initialZ 0m
attr unit m
par test.leachNode[0].mobility initialLatitude "nan deg"
attr unit deg
par test.leachNode[0].mobility initialLongitude "nan deg"
attr unit deg
par test.leachNode[0].mobility initialAltitude 0m
attr unit m
par test.leachNode[0].mobility initialHeading 0deg
attr unit deg
par test.leachNode[0].mobility initialElevation 0deg
attr unit deg
par test.leachNode[0].mobility initialBank 0deg
attr unit deg
par test.leachNode[0].mobility initFromDisplayString true
par test.leachNode[0].mobility updateFromDisplayString true
par test.leachNode[0].interfaceTable typename "\"inet.networklayer.common.InterfaceTable\""
par test.leachNode[0].interfaceTable displayAddresses false
par test.leachNode[0].cb typename "\"inet.common.MessageDispatcher\""
par test.leachNode[0].cb displayStringTextFormat "\"processed %p pk (%l)\""
par test.leachNode[0].cb forwardServiceRegistration true
par test.leachNode[0].cb forwardProtocolRegistration true
par test.leachNode[0].bl typename "\"inet.common.MessageDispatcher\""
par test.leachNode[0].bl displayStringTextFormat "\"processed %p pk (%l)\""
par test.leachNode[0].bl forwardServiceRegistration true
par test.leachNode[0].bl forwardProtocolRegistration true
par test.leachNode[0].li typename "\"inet.common.MessageDispatcher\""
par test.leachNode[0].li displayStringTextFormat "\"processed %p pk (%l)\""
par test.leachNode[0].li forwardServiceRegistration true
par test.leachNode[0].li forwardProtocolRegistration true
par test.leachNode[0].lo[0].upperLayerIn.channel typename "\"ned.IdealChannel\""
par test.leachNode[0].lo[0].lo.upperLayerOut.channel typename "\"ned.IdealChannel\""
par test.leachNode[0].lo[0].lo typename "\"inet.linklayer.loopback.Loopback\""
par test.leachNode[0].lo[0].lo interfaceTableModule "\"test.leachNode[0].interfaceTable\""
par test.leachNode[0].lo[0].lo mtu 4470B
attr unit B
scalar test.leachNode[0].lo[0].lo rcvdPkFromHl:count 0
attr interpolationmode none
attr recordingmode count
attr source packetReceivedFromUpper
attr title "packets received from higher layer, count"
scalar test.leachNode[0].lo[0].lo rcvdPkFromHl:sum(packetBytes) 0
attr interpolationmode none
attr recordingmode sum(packetBytes)
attr source packetReceivedFromUpper
attr title "packets received from higher layer, sum(packetBytes)"
scalar test.leachNode[0].lo[0].lo passedUpPk:count 0
attr interpolationmode none
attr recordingmode count
attr source packetSentToUpper
attr title "packets passed to higher layer, count"
scalar test.leachNode[0].lo[0].lo passedUpPk:sum(packetBytes) 0
attr interpolationmode none
attr recordingmode sum(packetBytes)
attr source packetSentToUpper
attr title "packets passed to higher layer, sum(packetBytes)"
par test.leachNode[0].lo[0] typename "\"inet.linklayer.loopback.LoopbackInterface\""
par test.leachNode[0].lo[0] displayStringTextFormat "\"%a (%i)\\n%m\""
par test.leachNode[0].lo[0] recordPcap false
par test.leachNode[0].lo[0] numPcapRecorders 0
par test.leachNode[0].lo[0] interfaceTableModule "\"test.leachNode[0].interfaceTable\""
scalar test.leachNode[0].lo[0] packetDropInterfaceDown:count 0
attr interpolationmode none
attr recordingmode count
attr source packetDropReasonIsInterfaceDown(packetDropped)
attr title "packet drops: interface down, count"
scalar test.leachNode[0].lo[0] packetDropInterfaceDown:sum(packetBytes) 0
attr interpolationmode none
attr recordingmode sum(packetBytes)
attr source packetDropReasonIsInterfaceDown(packetDropped)
attr title "packet drops: interface down, sum(packetBytes)"
scalar test.leachNode[0].lo[0] packetDropNoCarrier:count 0
attr interpolationmode none
attr recordingmode count
attr source packetDropReasonIsNoCarrier(packetDropped)
attr title "packet drops: no carrier, count"
scalar test.leachNode[0].lo[0] packetDropNoCarrier:sum(packetBytes) 0
attr interpolationmode none
attr recordingmode sum(packetBytes)
attr source packetDropReasonIsNoCarrier(packetDropped)
attr title "packet drops: no carrier, sum(packetBytes)"
par test.leachNode[0].wlan[0].upperLayerIn.channel typename "\"ned.IdealChannel\""
par test.leachNode[0].wlan[0].radioIn.channel typename "\"ned.IdealChannel\""
par test.leachNode[0].wlan[0].mac.upperLayerOut.channel typename "\"ned.IdealChannel\""
par test.leachNode[0].wlan[0].queue typename "\"inet.queueing.queue.DropTailQueue\""
par test.leachNode[0].wlan[0].queue displayStringTextFormat "\"contains %p pk (%l) pushed %u\\npulled %o removed %r dropped %d\""
par test.leachNode[0].wlan[0].queue packetCapacity 100
par test.leachNode[0].wlan[0].queue dataCapacity -1b
attr unit b
par test.leachNode[0].wlan[0].queue dropperClass "\"inet::queueing::PacketAtCollectionEndDropper\""
par test.leachNode[0].wlan[0].queue comparatorClass "\"\""
par test.leachNode[0].wlan[0].queue bufferModule "\"\""
scalar test.leachNode[0].wlan[0].queue queueLength:last 0
attr autoWarmupFilter false
attr interpolationmode sample-hold
attr recordingmode last
attr source "warmup(atomic(constant0(packetPushEnded) + count(packetPushStarted) - count(packetPulled) - count(packetRemoved) - count(packetDropped)))"
attr title "queue length, last"
attr unit pk
scalar test.leachNode[0].wlan[0].queue queueLength:max 2
attr autoWarmupFilter false
attr interpolationmode sample-hold
attr recordingmode max
attr source "warmup(atomic(constant0(packetPushEnded) + count(packetPushStarted) - count(packetPulled) - count(packetRemoved) - count(packetDropped)))"
attr title "queue length, max"
attr unit pk
scalar test.leachNode[0].wlan[0].queue queueLength:timeavg 0.00013742171159599
attr autoWarmupFilter false
attr interpolationmode sample-hold
attr recordingmode timeavg
attr source "warmup(atomic(constant0(packetPushEnded) + count(packetPushStarted) - count(packetPulled) - count(packetRemoved) - count(packetDropped)))"
attr title "queue length, timeavg"
attr unit pk
scalar test.leachNode[0].wlan[0].queue queueBitLength:last 0
attr autoWarmupFilter false
attr interpolationmode sample-hold
attr recordingmode last
attr source "warmup(atomic(constant0(packetPushEnded) + sum(packetLength(packetPushStarted)) - sum(packetLength(packetPulled)) - sum(packetLength(packetRemoved)) - sum(packetLength(packetDropped))))"
attr title "queue bit length, last"
attr unit b
scalar test.leachNode[0].wlan[0].queue queueBitLength:max 1344
attr autoWarmupFilter false
attr interpolationmode sample-hold
attr recordingmode max
attr source "warmup(atomic(constant0(packetPushEnded) + sum(packetLength(packetPushStarted)) - sum(packetLength(packetPulled)) - sum(packetLength(packetRemoved)) - sum(packetLength(packetDropped))))"
attr title "queue bit length, max"
attr unit b
scalar test.leachNode[0].wlan[0].queue queueBitLength:timeavg 0.070417062701627
attr autoWarmupFilter false
attr interpolationmode sample-hold
attr recordingmode timeavg
attr source "warmup(atomic(constant0(packetPushEnded) + sum(packetLength(packetPushStarted)) - sum(packetLength(packetPulled)) - sum(packetLength(packetRemoved)) - sum(packetLength(packetDropped))))"
attr title "queue bit length, timeavg"
attr unit b
statistic test.leachNode[0].wlan[0].queue queueingTime:histogram
field count 55
field mean 0.0021866974998182
field stddev 0.0015010178894096
field min 0.000128
field max 0.005658316696
field sum 0.12026836249
field sqrsum 0.0003846554815978
attr interpolationmode none
attr recordingmode histogram
attr source queueingTime(packetPulled)
attr title "queueing times"
attr unit s
bin	-inf	0
bin	0	0
bin	0.0001	3
bin	0.0002	0
bin	0.0003	1
bin	0.0004	3
bin	0.0005	0
bin	0.0006	0
bin	0.0007	4
bin	0.0008	0
bin	0.0009	0
bin	0.001	4
bin	0.0011	0
bin	0.0012	0
bin	0.0013	3
bin	0.0014	3
bin	0.0015	0
bin	0.0016	4
bin	0.0017	4
bin	0.0018	0
bin	0.0019	0
bin	0.002	2
bin	0.0021	3
bin	0.0022	2
bin	0.0023	4
bin	0.0024	0
bin	0.0025	0
bin	0.0026	0
bin	0.0027	1
bin	0.0028	0
bin	0.0029	0
bin	0.003	0
bin	0.0031	0
bin	0.0032	0
bin	0.0033	0
bin	0.0034	1
bin	0.0035	0
bin	0.0036	0
bin	0.0037	3
bin	0.0038	1
bin	0.0039	0
bin	0.004	0
bin	0.0041	1
bin	0.0042	0
bin	0.0043	1
bin	0.0044	1
bin	0.0045	0
bin	0.0046	1
bin	0.0047	1
bin	0.0048	0
bin	0.0049	0
bin	0.005	2
bin	0.0051	0
bin	0.0052	0
bin	0.0053	0
bin	0.0054	1
bin	0.0055	0
bin	0.0056	1
bin	0.0057	0
bin	0.0058	0
bin	0.0059	0
bin	0.006	0
bin	0.0061	0
bin	0.0062	0
bin	0.0063	0
bin	0.0064	0
bin	0.0065	0
bin	0.0066	0
bin	0.0067	0
bin	0.0068	0
bin	0.0069	0
bin	0.007	0
bin	0.0071	0
scalar test.leachNode[0].wlan[0].queue outgoingPackets:count 55
attr recordingmode count
attr source packetPulled
attr title "outgoing packets, count"
attr unit pk
scalar test.leachNode[0].wlan[0].queue outgoingPacketLengths:sum 31200
attr interpolationmode none
attr recordingmode sum
attr source packetLength(packetPulled)
attr title "outgoing packet lengths, sum"
attr unit b
statistic test.leachNode[0].wlan[0].queue outgoingPacketLengths:histogram
field count 55
field mean 567.27272727273
field stddev 279.88261127529
field min 288
field max 928
field sum 31200
field sqrsum 21928960
attr interpolationmode none
attr recordingmode histogram
attr source packetLength(packetPulled)
attr title "outgoing packet lengths"
attr unit b
bin	-inf	0
bin	120	0
bin	140	0
bin	160	0
bin	180	0
bin	200	0
bin	220	0
bin	240	0
bin	260	0
bin	280	15
bin	300	0
bin	320	0
bin	340	0
bin	360	0
bin	380	0
bin	400	20
bin	420	0
bin	440	0
bin	460	0
bin	480	0
bin	500	0
bin	520	0
bin	540	0
bin	560	0
bin	580	0
bin	600	0
bin	620	0
bin	640	0
bin	660	0
bin	680	0
bin	700	0
bin	720	0
bin	740	0
bin	760	0
bin	780	0
bin	800	0
bin	820	0
bin	840	0
bin	860	0
bin	880	0
bin	900	0
bin	920	20
bin	940	0
bin	960	0
bin	980	0
bin	1000	0
bin	1020	0
bin	1040	0
bin	1060	0
bin	1080	0
bin	1100	0
statistic test.leachNode[0].wlan[0].queue flowQueueingTime:histogram
field count 0
field mean nan
field stddev nan
field min nan
field max nan
field sum 0
field sqrsum 0
attr interpolationmode none
attr recordingmode histogram
attr source queueingTime(demuxFlow(packetPulled))
attr title "flow queueing times"
attr unit s
bin	-inf	0
bin	0	0
bin	1	0
scalar test.leachNode[0].wlan[0].queue incomingPackets:count 55
attr recordingmode count
attr source packetPushStarted
attr title "incoming packets, count"
attr unit pk
scalar test.leachNode[0].wlan[0].queue incomingPacketLengths:sum 31200
attr interpolationmode none
attr recordingmode sum
attr source packetLength(packetPushStarted)
attr title "incoming packet lengths, sum"
attr unit b
statistic test.leachNode[0].wlan[0].queue incomingPacketLengths:histogram
field count 55
field mean 567.27272727273
field stddev 279.88261127529
field min 288
field max 928
field sum 31200
field sqrsum 21928960
attr interpolationmode none
attr recordingmode histogram
attr source packetLength(packetPushStarted)
attr title "incoming packet lengths"
attr unit b
bin	-inf	0
bin	120	0
bin	140	0
bin	160	0
bin	180	0
bin	200	0
bin	220	0
bin	240	0
bin	260	0
bin	280	15
bin	300	0
bin	320	0
bin	340	0
bin	360	0
bin	380	0
bin	400	20
bin	420	0
bin	440	0
bin	460	0
bin	480	0
bin	500	0
bin	520	0
bin	540	0
bin	560	0
bin	580	0
bin	600	0
bin	620	0
bin	640	0
bin	660	0
bin	680	0
bin	700	0
bin	720	0
bin	740	0
bin	760	0
bin	780	0
bin	800	0
bin	820	0
bin	840	0
bin	860	0
bin	880	0
bin	900	0
bin	920	20
bin	940	0
bin	960	0
bin	980	0
bin	1000	0
bin	1020	0
bin	1040	0
bin	1060	0
bin	1080	0
bin	1100	0
scalar test.leachNode[0].wlan[0].queue droppedPacketsQueueOverflow:count 0
attr interpolationmode none
attr recordingmode count
attr source packetDropReasonIsQueueOverflow(packetDropped)
attr title "dropped packets: queue overflow, count"
attr unit pk
scalar test.leachNode[0].wlan[0].queue droppedPacketLengthsQueueOverflow:sum 0
attr interpolationmode none
attr recordingmode sum
attr source packetLength(packetDropReasonIsQueueOverflow(packetDropped))
attr title "dropped packet lengths: queue overflow, sum"
attr unit b
par test.leachNode[0].wlan[0].mac typename "\"inet.linklayer.ieee802154.Ieee802154NarrowbandMac\""
par test.leachNode[0].wlan[0].mac interfaceTableModule "\"test.leachNode[0].interfaceTable\""
par test.leachNode[0].wlan[0].mac address "\"auto\""
attr mutable ""
par test.leachNode[0].wlan[0].mac headerLength 72b
attr unit b
par test.leachNode[0].wlan[0].mac mtu 118B
attr unit B
par test.leachNode[0].wlan[0].mac bitrate 2e+06bps
attr unit bps
par test.leachNode[0].wlan[0].mac ccaDetectionTime 0.000128s
attr unit s
par test.leachNode[0].wlan[0].mac rxSetupTime 0s
attr unit s
par test.leachNode[0].wlan[0].mac aTurnaroundTime 0.000192s
attr unit s
par test.leachNode[0].wlan[0].mac useMACAcks true
par test.leachNode[0].wlan[0].mac macMaxFrameRetries 3
par test.leachNode[0].wlan[0].mac macAckWaitDuration 0.00056s
attr unit s
par test.leachNode[0].wlan[0].mac ackLength 40b
attr unit b
par test.leachNode[0].wlan[0].mac sifs 0.000192s
attr unit s
par test.leachNode[0].wlan[0].mac backoffMethod "\"exponential\""
par test.leachNode[0].wlan[0].mac macMaxCSMABackoffs 4
par test.leachNode[0].wlan[0].mac aUnitBackoffPeriod 0.00032s
attr unit s
par test.leachNode[0].wlan[0].mac contentionWindow 2
par test.leachNode[0].wlan[0].mac macMinBE 3
par test.leachNode[0].wlan[0].mac macMaxBE 5
par test.leachNode[0].wlan[0].mac radioModule "\"^.radio\""
scalar test.leachNode[0].wlan[0].mac nbTxFrames 55
scalar test.leachNode[0].wlan[0].mac nbRxFrames 58
scalar test.leachNode[0].wlan[0].mac nbDroppedFrames 0
scalar test.leachNode[0].wlan[0].mac nbMissedAcks 0
scalar test.leachNode[0].wlan[0].mac nbRecvdAcks 49
scalar test.leachNode[0].wlan[0].mac nbTxAcks 36
scalar test.leachNode[0].wlan[0].mac nbDuplicates 0
scalar test.leachNode[0].wlan[0].mac meanBackoff 0.001152
scalar test.leachNode[0].wlan[0].mac nbBackoffs 55
scalar test.leachNode[0].wlan[0].mac backoffDurations 0.06336
scalar test.leachNode[0].wlan[0].mac packetDropNotAddressToUs:count 260
attr interpolationmode none
attr recordingmode count
attr source packetDropReasonIsNotAddressedToUs(packetDropped)
attr title "packet drop: not addressed to us, count"
scalar test.leachNode[0].wlan[0].mac packetDropNotAddressToUs:sum(packetBytes) 11588
attr interpolationmode none
attr recordingmode sum(packetBytes)
attr source packetDropReasonIsNotAddressedToUs(packetDropped)
attr title "packet drop: not addressed to us, sum(packetBytes)"
scalar test.leachNode[0].wlan[0].mac packetDropIncorrectlyReceived:count 0
attr interpolationmode none
attr recordingmode count
attr source packetDropReasonIsIncorrectlyReceived(packetDropped)
attr title "packet drop: incorrectly received, count"
scalar test.leachNode[0].wlan[0].mac packetDropIncorrectlyReceived:sum(packetBytes) 0
attr interpolationmode none
attr recordingmode sum(packetBytes)
attr source packetDropReasonIsIncorrectlyReceived(packetDropped)
attr title "packet drop: incorrectly received, sum(packetBytes)"
scalar test.leachNode[0].wlan[0].mac packetDropQueueOverflow:count 0
attr interpolationmode none
attr recordingmode count
attr source packetDropReasonIsQueueOverflow(packetDropped)
attr title "packet drop: queue overflow, count"
scalar test.leachNode[0].wlan[0].mac packetDropQueueOverflow:sum(packetBytes) 0
attr interpolationmode none
attr recordingmode sum(packetBytes)
attr source packetDropReasonIsQueueOverflow(packetDropped)
attr title "packet drop: queue overflow, sum(packetBytes)"
scalar test.leachNode[0].wlan[0].mac packetDropRetryLimitReached:count 0
attr interpolationmode none
attr recordingmode count
attr source packetDropReasonIsRetryLimitReached(packetDropped)
attr title "packet drop: retry limit reached, count"
scalar test.leachNode[0].wlan[0].mac packetDropRetryLimitReached:sum(packetBytes) 0
attr interpolationmode none
attr recordingmode sum(packetBytes)
attr source packetDropReasonIsRetryLimitReached(packetDropped)
attr title "packet drop: retry limit reached, sum(packetBytes)"
scalar test.leachNode[0].wlan[0].mac packetDropBackoffLimitReached:count 0
attr interpolationmode none
attr recordingmode count
attr source packetDropReasonIsCongestion(packetDropped)
attr title "packet drop: backoff limit reached, count"
scalar test.leachNode[0].wlan[0].mac packetDropBackoffLimitReached:sum(packetBytes) 0
attr interpolationmode none
attr recordingmode sum(packetBytes)
attr source packetDropReasonIsCongestion(packetDropped)
attr title "packet drop: backoff limit reached, sum(packetBytes)"
scalar test.leachNode[0].wlan[0].mac linkBroken:count 0
attr interpolationmode none
attr recordingmode count
attr source linkBroken
attr title "link break, count"
par test.leachNode[0].wlan[0].radio.antenna typename "\"inet.physicallayer.wireless.common.antenna.IsotropicAntenna\""
par test.leachNode[0].wlan[0].radio.antenna mobilityModule "\"^.^.^.mobility\""
par test.leachNode[0].wlan[0].radio.antenna numAntennas 1
par test.leachNode[0].wlan[0].radio.transmitter typename "\"inet.physicallayer.wireless.apsk.packetlevel.ApskScalarTransmitter\""
par test.leachNode[0].wlan[0].radio.transmitter preambleDuration 1e-05s
attr unit s
par test.leachNode[0].wlan[0].radio.transmitter headerLength 64b
attr unit b
par test.leachNode[0].wlan[0].radio.transmitter bitrate 2e+06bps
attr unit bps
par test.leachNode[0].wlan[0].radio.transmitter power 1000W
attr unit W
par test.leachNode[0].wlan[0].radio.transmitter centerFrequency 2e+09Hz
attr unit Hz
par test.leachNode[0].wlan[0].radio.transmitter bandwidth 2e+06Hz
attr unit Hz
par test.leachNode[0].wlan[0].radio.transmitter codeRate 1
par test.leachNode[0].wlan[0].radio.transmitter modulation "\"BPSK\""
par test.leachNode[0].wlan[0].radio.receiver.errorModel typename "\"inet.physicallayer.wireless.apsk.packetlevel.errormodel.ApskErrorModel\""
par test.leachNode[0].wlan[0].radio.receiver.errorModel corruptionMode "\"packet\""
attr enum packet,chunk,byte,bit
par test.leachNode[0].wlan[0].radio.receiver.errorModel snirMode "\"min\""
attr enum min,mean
par test.leachNode[0].wlan[0].radio.receiver.errorModel snirOffset 0dB
attr unit dB
par test.leachNode[0].wlan[0].radio.receiver typename "\"inet.physicallayer.wireless.apsk.packetlevel.ApskScalarReceiver\""
par test.leachNode[0].wlan[0].radio.receiver snirThreshold 4dB
attr unit dB
par test.leachNode[0].wlan[0].radio.receiver snirThresholdMode "\"min\""
attr enum min,mean
par test.leachNode[0].wlan[0].radio.receiver energyDetection -85dBm
attr unit dBm
par test.leachNode[0].wlan[0].radio.receiver sensitivity -85dBm
attr unit dBm
par test.leachNode[0].wlan[0].radio.receiver centerFrequency 2e+09Hz
attr unit Hz
par test.leachNode[0].wlan[0].radio.receiver bandwidth 2e+06Hz
attr unit Hz
par test.leachNode[0].wlan[0].radio.receiver modulation "\"BPSK\""
par test.leachNode[0].wlan[0].radio.energyConsumer typename "\"inet.physicallayer.wireless.common.energyconsumer.SensorStateBasedEpEnergyConsumer\""
par test.leachNode[0].wlan[0].radio.energyConsumer energySourceModule "\"test.leachNode[0].energyStorage\""
par test.leachNode[0].wlan[0].radio.energyConsumer offPowerConsumption 0W
attr unit W
par test.leachNode[0].wlan[0].radio.energyConsumer sleepPowerConsumption 1e-06W
attr unit W
par test.leachNode[0].wlan[0].radio.energyConsumer switchingPowerConsumption 0.025W
attr unit W
par test.leachNode[0].wlan[0].radio.energyConsumer receiverIdlePowerConsumption 5e-06W
attr unit W
par test.leachNode[0].wlan[0].radio.energyConsumer receiverBusyPowerConsumption 0.0001W
attr unit W
par test.leachNode[0].wlan[0].radio.energyConsumer receiverReceivingPowerConsumption 0.05W
attr unit W
par test.leachNode[0].wlan[0].radio.energyConsumer receiverReceivingPreamblePowerConsumption 0.05W
attr unit W
par test.leachNode[0].wlan[0].radio.energyConsumer receiverReceivingHeaderPowerConsumption 0.05W
attr unit W
par test.leachNode[0].wlan[0].radio.energyConsumer receiverReceivingDataPowerConsumption 0.05W
attr unit W
par test.leachNode[0].wlan[0].radio.energyConsumer transmitterIdlePowerConsumption 0.005W
attr unit W
par test.leachNode[0].wlan[0].radio.energyConsumer transmitterTransmittingPowerConsumption 0.075W
attr unit W
par test.leachNode[0].wlan[0].radio.energyConsumer transmitterTransmittingPreamblePowerConsumption 0.075W
attr unit W
par test.leachNode[0].wlan[0].radio.energyConsumer transmitterTransmittingHeaderPowerConsumption 0.075W
attr unit W
par test.leachNode[0].wlan[0].radio.energyConsumer transmitterTransmittingDataPowerConsumption 0.075W
attr unit W
par test.leachNode[0].wlan[0].radio typename "\"inet.physicallayer.wireless.apsk.packetlevel.ApskScalarRadio\""
par test.leachNode[0].wlan[0].radio radioMediumModule "\"radioMedium\""
par test.leachNode[0].wlan[0].radio energySourceModule "\"test.leachNode[0].energyStorage\""
par test.leachNode[0].wlan[0].radio initialRadioMode "\"off\""
attr enum off,sleep,receiver,transmitter,transceiver
par test.leachNode[0].wlan[0].radio switchingTimes "\"ms 0 0 0 0 0 0 0 0 0 0 0 0 0 0 0 0 0 0 0 0 0 0 0 0 0\""
par test.leachNode[0].wlan[0].radio sendRawBytes false
par test.leachNode[0].wlan[0].radio separateTransmissionParts false
par test.leachNode[0].wlan[0].radio separateReceptionParts false
par test.leachNode[0].wlan[0].radio displayCommunicationRange true
par test.leachNode[0].wlan[0].radio displayInterferenceRange true
par test.leachNode[0].wlan[0].radio centerFrequency 2e+09Hz
attr unit Hz
par test.leachNode[0].wlan[0].radio bandwidth 2e+06Hz
attr unit Hz
par test.leachNode[0].wlan[0].radio protocol "\"\""
par test.leachNode[0].wlan[0].radio signalAnalogRepresentation "\"scalar\""
attr enum scalar,dimensional
statistic test.leachNode[0].wlan[0].radio minSnir:histogram
field count 367
field mean 21641000.898954
field stddev 23692541.340743
field min 2401999.0782061
field max 63138359.735731
field sum 7942247329.9162
field sqrsum 3.7732734616335e+17
attr recordingmode histogram
attr source minimumSnir(packetSentToUpper)
attr title "Min SNIR"
bin	-inf	0
bin	0	0
bin	1000000	0
bin	2000000	93
bin	3000000	0
bin	4000000	56
bin	5000000	0
bin	6000000	0
bin	7000000	53
bin	8000000	0
bin	9000000	0
bin	10000000	0
bin	11000000	0
bin	12000000	0
bin	13000000	0
bin	14000000	0
bin	15000000	0
bin	16000000	0
bin	17000000	0
bin	18000000	0
bin	19000000	0
bin	20000000	0
bin	21000000	81
bin	22000000	0
bin	23000000	0
bin	24000000	0
bin	25000000	0
bin	26000000	0
bin	27000000	0
bin	28000000	0
bin	29000000	0
bin	30000000	0
bin	31000000	0
bin	32000000	0
bin	33000000	0
bin	34000000	0
bin	35000000	0
bin	36000000	0
bin	37000000	0
bin	38000000	0
bin	39000000	0
bin	40000000	0
bin	41000000	0
bin	42000000	0
bin	43000000	0
bin	44000000	0
bin	45000000	0
bin	46000000	0
bin	47000000	0
bin	48000000	0
bin	49000000	0
bin	50000000	0
bin	51000000	0
bin	52000000	0
bin	53000000	0
bin	54000000	0
bin	55000000	0
bin	56000000	0
bin	57000000	0
bin	58000000	0
bin	59000000	0
bin	60000000	0
bin	61000000	0
bin	62000000	0
bin	63000000	84
bin	64000000	0
bin	65000000	0
bin	66000000	0
bin	67000000	0
bin	68000000	0
bin	69000000	0
bin	70000000	0
bin	71000000	0
bin	72000000	0
bin	73000000	0
bin	74000000	0
bin	75000000	0
bin	76000000	0
bin	77000000	0
bin	78000000	0
bin	79000000	0
statistic test.leachNode[0].wlan[0].radio packetErrorRate:histogram
field count 367
field mean 0
field stddev 0
field min 0
field max 0
field sum 0
field sqrsum 0
attr recordingmode histogram
attr source packetErrorRate(packetSentToUpper)
attr title "Packet error rate"
bin	-inf	0
bin	-0.5	0
bin	-0.48	0
bin	-0.46	0
bin	-0.44	0
bin	-0.42	0
bin	-0.4	0
bin	-0.38	0
bin	-0.36	0
bin	-0.34	0
bin	-0.32	0
bin	-0.3	0
bin	-0.28	0
bin	-0.26	0
bin	-0.24	0
bin	-0.22	0
bin	-0.2	0
bin	-0.18	0
bin	-0.16	0
bin	-0.14	0
bin	-0.12	0
bin	-0.1	0
bin	-0.08	0
bin	-0.06	0
bin	-0.04	0
bin	-0.02	0
bin	0	367
bin	0.02	0
bin	0.04	0
bin	0.06	0
bin	0.08	0
bin	0.1	0
bin	0.12	0
bin	0.14	0
bin	0.16	0
bin	0.18	0
bin	0.2	0
bin	0.22	0
bin	0.24	0
bin	0.26	0
bin	0.28	0
bin	0.3	0
bin	0.32	0
bin	0.34	0
bin	0.36	0
bin	0.38	0
bin	0.4	0
bin	0.42	0
bin	0.44	0
bin	0.46	0
bin	0.48	0
bin	0.5	0
statistic test.leachNode[0].wlan[0].radio bitErrorRate:histogram
field count 367
field mean 0
field stddev 0
field min 0
field max 0
field sum 0
field sqrsum 0
attr recordingmode histogram
attr source bitErrorRate(packetSentToUpper)
attr title "Bit error rate"
bin	-inf	0
bin	-0.5	0
bin	-0.48	0
bin	-0.46	0
bin	-0.44	0
bin	-0.42	0
bin	-0.4	0
bin	-0.38	0
bin	-0.36	0
bin	-0.34	0
bin	-0.32	0
bin	-0.3	0
bin	-0.28	0
bin	-0.26	0
bin	-0.24	0
bin	-0.22	0
bin	-0.2	0
bin	-0.18	0
bin	-0.16	0
bin	-0.14	0
bin	-0.12	0
bin	-0.1	0
bin	-0.08	0
bin	-0.06	0
bin	-0.04	0
bin	-0.02	0
bin	0	367
bin	0.02	0
bin	0.04	0
bin	0.06	0
bin	0.08	0
bin	0.1	0
bin	0.12	0
bin	0.14	0
bin	0.16	0
bin	0.18	0
bin	0.2	0
bin	0.22	0
bin	0.24	0
bin	0.26	0
bin	0.28	0
bin	0.3	0
bin	0.32	0
bin	0.34	0
bin	0.36	0
bin	0.38	0
bin	0.4	0
bin	0.42	0
bin	0.44	0
bin	0.46	0
bin	0.48	0
bin	0.5	0
statistic test.leachNode[0].wlan[0].radio symbolErrorRate:histogram
field count 367
field mean 0
field stddev 0
field min 0
field max 0
field sum 0
field sqrsum 0
attr recordingmode histogram
attr source symbolErrorRate(packetSentToUpper)
attr title "Symbol error rate"
bin	-inf	0
bin	-0.5	0
bin	-0.48	0
bin	-0.46	0
bin	-0.44	0
bin	-0.42	0
bin	-0.4	0
bin	-0.38	0
bin	-0.36	0
bin	-0.34	0
bin	-0.32	0
bin	-0.3	0
bin	-0.28	0
bin	-0.26	0
bin	-0.24	0
bin	-0.22	0
bin	-0.2	0
bin	-0.18	0
bin	-0.16	0
bin	-0.14	0
bin	-0.12	0
bin	-0.1	0
bin	-0.08	0
bin	-0.06	0
bin	-0.04	0
bin	-0.02	0
bin	0	367
bin	0.02	0
bin	0.04	0
bin	0.06	0
bin	0.08	0
bin	0.1	0
bin	0.12	0
bin	0.14	0
bin	0.16	0
bin	0.18	0
bin	0.2	0
bin	0.22	0
bin	0.24	0
bin	0.26	0
bin	0.28	0
bin	0.3	0
bin	0.32	0
bin	0.34	0
bin	0.36	0
bin	0.38	0
bin	0.4	0
bin	0.42	0
bin	0.44	0
bin	0.46	0
bin	0.48	0
bin	0.5	0
scalar test.leachNode[0].wlan[0].radio packetDropped:count 0
attr interpolationmode none
attr recordingmode count
attr title "packets dropped, count"
scalar test.leachNode[0].wlan[0].radio packetDropped:sum(packetBytes) 0
attr interpolationmode none
attr recordingmode sum(packetBytes)
attr title "packets dropped, sum(packetBytes)"
scalar test.leachNode[0].wlan[0].radio transmissionState:count 364
attr interpolationmode sample-hold
attr recordingmode count
attr source transmissionStateChanged
attr title "Radio transmission state, count"
scalar test.leachNode[0].wlan[0].radio receptionState:count 917
attr interpolationmode sample-hold
attr recordingmode count
attr source receptionStateChanged
attr title "Radio reception state, count"
scalar test.leachNode[0].wlan[0].radio radioMode:count 185
attr interpolationmode sample-hold
attr recordingmode count
attr source radioModeChanged
attr title "Radio mode, count"
par test.leachNode[0].wlan[0] typename "\"inet.linklayer.ieee802154.Ieee802154NarrowbandInterface\""
par test.leachNode[0].wlan[0] displayStringTextFormat "\"%a (%i)\\n%m\""
par test.leachNode[0].wlan[0] recordPcap false
par test.leachNode[0].wlan[0] numPcapRecorders 0
par test.leachNode[0].wlan[0] interfaceTableModule "\"test.leachNode[0].interfaceTable\""
par test.leachNode[0].wlan[0] energySourceModule "\"test.leachNode[0].energyStorage\""
scalar test.leachNode[0].wlan[0] packetDropInterfaceDown:count 0
attr interpolationmode none
attr recordingmode count
attr source packetDropReasonIsInterfaceDown(packetDropped)
attr title "packet drops: interface down, count"
scalar test.leachNode[0].wlan[0] packetDropInterfaceDown:sum(packetBytes) 0
attr interpolationmode none
attr recordingmode sum(packetBytes)
attr source packetDropReasonIsInterfaceDown(packetDropped)
attr title "packet drops: interface down, sum(packetBytes)"
scalar test.leachNode[0].wlan[0] packetDropNoCarrier:count 0
attr interpolationmode none
attr recordingmode count
attr source packetDropReasonIsNoCarrier(packetDropped)
attr title "packet drops: no carrier, count"
scalar test.leachNode[0].wlan[0] packetDropNoCarrier:sum(packetBytes) 0
attr interpolationmode none
attr recordingmode sum(packetBytes)
attr source packetDropReasonIsNoCarrier(packetDropped)
attr title "packet drops: no carrier, sum(packetBytes)"
par test.leachNode[0].ipv4.transportIn.channel typename "\"ned.IdealChannel\""
par test.leachNode[0].ipv4.up.out[0].channel typename "\"ned.IdealChannel\""
par test.leachNode[0].ipv4.lp.out[2].channel typename "\"ned.IdealChannel\""
par test.leachNode[0].ipv4.ifIn.channel typename "\"ned.IdealChannel\""
par test.leachNode[0].ipv4.configurator typename "\"inet.networklayer.configurator.ipv4.Ipv4NodeConfigurator\""
par test.leachNode[0].ipv4.configurator interfaceTableModule "\"test.leachNode[0].interfaceTable\""
par test.leachNode[0].ipv4.configurator routingTableModule "\"test.leachNode[0].ipv4.routingTable\""
par test.leachNode[0].ipv4.configurator networkConfiguratorModule "\"configurator\""
par test.leachNode[0].ipv4.configurator configureRoutingTable true
par test.leachNode[0].ipv4.routingTable typename "\"inet.networklayer.ipv4.Ipv4RoutingTable\""
par test.leachNode[0].ipv4.routingTable interfaceTableModule "\"test.leachNode[0].interfaceTable\""
par test.leachNode[0].ipv4.routingTable routerId "\"auto\""
par test.leachNode[0].ipv4.routingTable netmaskRoutes "\"*\""
par test.leachNode[0].ipv4.routingTable forwarding true
par test.leachNode[0].ipv4.routingTable multicastForwarding false
par test.leachNode[0].ipv4.routingTable useAdminDist false
par test.leachNode[0].ipv4.routingTable routingFile "\"\""
par test.leachNode[0].ipv4.natTable typename "\"inet.networklayer.ipv4.Ipv4NatTable\""
par test.leachNode[0].ipv4.natTable networkProtocolModule "\"^.ip\""
par test.leachNode[0].ipv4.natTable config "<config/> at content:1"
par test.leachNode[0].ipv4.up typename "\"inet.common.MessageDispatcher\""
par test.leachNode[0].ipv4.up displayStringTextFormat "\"processed %p pk (%l)\""
par test.leachNode[0].ipv4.up forwardServiceRegistration true
par test.leachNode[0].ipv4.up forwardProtocolRegistration true
par test.leachNode[0].ipv4.igmp typename "\"inet.networklayer.ipv4.Igmpv2\""
par test.leachNode[0].ipv4.igmp interfaceTableModule "\"test.leachNode[0].interfaceTable\""
par test.leachNode[0].ipv4.igmp routingTableModule "\"test.leachNode[0].ipv4.routingTable\""
par test.leachNode[0].ipv4.igmp crcMode "\"declared\""
attr enum declared,computed
par test.leachNode[0].ipv4.igmp enabled true
[...]
par test.BaseStation.wlan[0].radio separateReceptionParts false
par test.BaseStation.wlan[0].radio displayCommunicationRange false
par test.BaseStation.wlan[0].radio displayInterferenceRange false
par test.BaseStation.wlan[0].radio centerFrequency 2e+09Hz
attr unit Hz
par test.BaseStation.wlan[0].radio bandwidth 2e+06Hz
attr unit Hz
par test.BaseStation.wlan[0].radio protocol "\"\""
par test.BaseStation.wlan[0].radio signalAnalogRepresentation "\"scalar\""
attr enum scalar,dimensional
statistic test.BaseStation.wlan[0].radio minSnir:histogram
field count 374
field mean 30060971.032818
field stddev 27285729.796877
field min 2994644.0538483
field max 63138359.735731
field sum 11242803166.274
field sqrsum 6.1567220216352e+17
attr recordingmode histogram
attr source minimumSnir(packetSentToUpper)
attr title "Min SNIR"
bin	-inf	0
bin	0	0
bin	1000000	0
bin	2000000	93
bin	3000000	0
bin	4000000	53
bin	5000000	0
bin	6000000	0
bin	7000000	0
bin	8000000	0
bin	9000000	56
bin	10000000	0
bin	11000000	0
bin	12000000	0
bin	13000000	0
bin	14000000	0
bin	15000000	0
bin	16000000	0
bin	17000000	0
bin	18000000	0
bin	19000000	0
bin	20000000	0
bin	21000000	0
bin	22000000	0
bin	23000000	0
bin	24000000	0
bin	25000000	0
bin	26000000	0
bin	27000000	0
bin	28000000	0
bin	29000000	0
bin	30000000	0
bin	31000000	0
bin	32000000	0
bin	33000000	0
bin	34000000	0
bin	35000000	0
bin	36000000	0
bin	37000000	0
bin	38000000	0
bin	39000000	0
bin	40000000	0
bin	41000000	0
bin	42000000	0
bin	43000000	0
bin	44000000	0
bin	45000000	0
bin	46000000	0
bin	47000000	0
bin	48000000	0
bin	49000000	0
bin	50000000	0
bin	51000000	0
bin	52000000	0
bin	53000000	0
bin	54000000	0
bin	55000000	81
bin	56000000	0
bin	57000000	0
bin	58000000	0
bin	59000000	0
bin	60000000	0
bin	61000000	0
bin	62000000	0
bin	63000000	91
bin	64000000	0
bin	65000000	0
bin	66000000	0
bin	67000000	0
bin	68000000	0
bin	69000000	0
bin	70000000	0
bin	71000000	0
bin	72000000	0
bin	73000000	0
bin	74000000	0
bin	75000000	0
bin	76000000	0
bin	77000000	0
bin	78000000	0
bin	79000000	0
statistic test.BaseStation.wlan[0].radio packetErrorRate:histogram
field count 374
field mean 0
field stddev 0
field min 0
field max 0
field sum 0
field sqrsum 0
attr recordingmode histogram
attr source packetErrorRate(packetSentToUpper)
attr title "Packet error rate"
bin	-inf	0
bin	-0.5	0
bin	-0.48	0
bin	-0.46	0
bin	-0.44	0
bin	-0.42	0
bin	-0.4	0
bin	-0.38	0
bin	-0.36	0
bin	-0.34	0
bin	-0.32	0
bin	-0.3	0
bin	-0.28	0
bin	-0.26	0
bin	-0.24	0
bin	-0.22	0
bin	-0.2	0
bin	-0.18	0
bin	-0.16	0
bin	-0.14	0
bin	-0.12	0
bin	-0.1	0
bin	-0.08	0
bin	-0.06	0
bin	-0.04	0
bin	-0.02	0
bin	0	374
bin	0.02	0
bin	0.04	0
bin	0.06	0
bin	0.08	0
bin	0.1	0
bin	0.12	0
bin	0.14	0
bin	0.16	0
bin	0.18	0
bin	0.2	0
bin	0.22	0
bin	0.24	0
bin	0.26	0
bin	0.28	0
bin	0.3	0
bin	0.32	0
bin	0.34	0
bin	0.36	0
bin	0.38	0
bin	0.4	0
bin	0.42	0
bin	0.44	0
bin	0.46	0
bin	0.48	0
bin	0.5	0
statistic test.BaseStation.wlan[0].radio bitErrorRate:histogram
field count 374
field mean 0
field stddev 0
field min 0
field max 0
field sum 0
field sqrsum 0
attr recordingmode histogram
attr source bitErrorRate(packetSentToUpper)
attr title "Bit error rate"
bin	-inf	0
bin	-0.5	0
bin	-0.48	0
bin	-0.46	0
bin	-0.44	0
bin	-0.42	0
bin	-0.4	0
bin	-0.38	0
bin	-0.36	0
bin	-0.34	0
bin	-0.32	0
bin	-0.3	0
bin	-0.28	0
bin	-0.26	0
bin	-0.24	0
bin	-0.22	0
bin	-0.2	0
bin	-0.18	0
bin	-0.16	0
bin	-0.14	0
bin	-0.12	0
bin	-0.1	0
bin	-0.08	0
bin	-0.06	0
bin	-0.04	0
bin	-0.02	0
bin	0	374
bin	0.02	0
bin	0.04	0
bin	0.06	0
bin	0.08	0
bin	0.1	0
bin	0.12	0
bin	0.14	0
bin	0.16	0
bin	0.18	0
bin	0.2	0
bin	0.22	0
bin	0.24	0
bin	0.26	0
bin	0.28	0
bin	0.3	0
bin	0.32	0
bin	0.34	0
bin	0.36	0
bin	0.38	0
bin	0.4	0
bin	0.42	0
bin	0.44	0
bin	0.46	0
bin	0.48	0
bin	0.5	0
statistic test.BaseStation.wlan[0].radio symbolErrorRate:histogram
field count 374
field mean 0
field stddev 0
field min 0
field max 0
field sum 0
field sqrsum 0
attr recordingmode histogram
attr source symbolErrorRate(packetSentToUpper)
attr title "Symbol error rate"
bin	-inf	0
bin	-0.5	0
bin	-0.48	0
bin	-0.46	0
bin	-0.44	0
bin	-0.42	0
bin	-0.4	0
bin	-0.38	0
bin	-0.36	0
bin	-0.34	0
bin	-0.32	0
bin	-0.3	0
bin	-0.28	0
bin	-0.26	0
bin	-0.24	0
bin	-0.22	0
bin	-0.2	0
bin	-0.18	0
bin	-0.16	0
bin	-0.14	0
bin	-0.12	0
bin	-0.1	0
bin	-0.08	0
bin	-0.06	0
bin	-0.04	0
bin	-0.02	0
bin	0	374
bin	0.02	0
bin	0.04	0
bin	0.06	0
bin	0.08	0
bin	0.1	0
bin	0.12	0
bin	0.14	0
bin	0.16	0
bin	0.18	0
bin	0.2	0
bin	0.22	0
bin	0.24	0
bin	0.26	0
bin	0.28	0
bin	0.3	0
bin	0.32	0
bin	0.34	0
bin	0.36	0
bin	0.38	0
bin	0.4	0
bin	0.42	0
bin	0.44	0
bin	0.46	0
bin	0.48	0
bin	0.5	0
scalar test.BaseStation.wlan[0].radio packetDropped:count 0
attr interpolationmode none
attr recordingmode count
attr title "packets dropped, count"
scalar test.BaseStation.wlan[0].radio packetDropped:sum(packetBytes) 0
attr interpolationmode none
attr recordingmode sum(packetBytes)
attr title "packets dropped, sum(packetBytes)"
scalar test.BaseStation.wlan[0].radio transmissionState:count 336
attr interpolationmode sample-hold
attr recordingmode count
attr source transmissionStateChanged
attr title "Radio transmission state, count"
scalar test.BaseStation.wlan[0].radio receptionState:count 917
attr interpolationmode sample-hold
attr recordingmode count
attr source receptionStateChanged
attr title "Radio reception state, count"
scalar test.BaseStation.wlan[0].radio radioMode:count 171
attr interpolationmode sample-hold
attr recordingmode count
attr source radioModeChanged
attr title "Radio mode, count"
par test.BaseStation.wlan[0] typename "\"inet.linklayer.ieee802154.Ieee802154NarrowbandInterface\""
par test.BaseStation.wlan[0] displayStringTextFormat "\"%a (%i)\\n%m\""
par test.BaseStation.wlan[0] recordPcap false
par test.BaseStation.wlan[0] numPcapRecorders 0
par test.BaseStation.wlan[0] interfaceTableModule "\"test.BaseStation.interfaceTable\""
par test.BaseStation.wlan[0] energySourceModule "\"test.BaseStation.energyStorage\""
scalar test.BaseStation.wlan[0] packetDropInterfaceDown:count 0
attr interpolationmode none
attr recordingmode count
attr source packetDropReasonIsInterfaceDown(packetDropped)
attr title "packet drops: interface down, count"
scalar test.BaseStation.wlan[0] packetDropInterfaceDown:sum(packetBytes) 0
attr interpolationmode none
attr recordingmode sum(packetBytes)
attr source packetDropReasonIsInterfaceDown(packetDropped)
attr title "packet drops: interface down, sum(packetBytes)"
scalar test.BaseStation.wlan[0] packetDropNoCarrier:count 0
attr interpolationmode none
attr recordingmode count
attr source packetDropReasonIsNoCarrier(packetDropped)
attr title "packet drops: no carrier, count"
scalar test.BaseStation.wlan[0] packetDropNoCarrier:sum(packetBytes) 0
attr interpolationmode none
attr recordingmode sum(packetBytes)
attr source packetDropReasonIsNoCarrier(packetDropped)
attr title "packet drops: no carrier, sum(packetBytes)"
par test.BaseStation.ipv4.transportIn.channel typename "\"ned.IdealChannel\""
par test.BaseStation.ipv4.up.out[0].channel typename "\"ned.IdealChannel\""
par test.BaseStation.ipv4.lp.out[2].channel typename "\"ned.IdealChannel\""
par test.BaseStation.ipv4.ifIn.channel typename "\"ned.IdealChannel\""
par test.BaseStation.ipv4.configurator typename "\"inet.networklayer.configurator.ipv4.Ipv4NodeConfigurator\""
par test.BaseStation.ipv4.configurator interfaceTableModule "\"test.BaseStation.interfaceTable\""
par test.BaseStation.ipv4.configurator routingTableModule "\"test.BaseStation.ipv4.routingTable\""
par test.BaseStation.ipv4.configurator networkConfiguratorModule "\"configurator\""
par test.BaseStation.ipv4.configurator configureRoutingTable true
par test.BaseStation.ipv4.routingTable typename "\"inet.networklayer.ipv4.Ipv4RoutingTable\""
par test.BaseStation.ipv4.routingTable interfaceTableModule "\"test.BaseStation.interfaceTable\""
par test.BaseStation.ipv4.routingTable routerId "\"auto\""
par test.BaseStation.ipv4.routingTable netmaskRoutes "\"*\""
par test.BaseStation.ipv4.routingTable forwarding true
par test.BaseStation.ipv4.routingTable multicastForwarding false
par test.BaseStation.ipv4.routingTable useAdminDist false
par test.BaseStation.ipv4.routingTable routingFile "\"\""
par test.BaseStation.ipv4.natTable typename "\"inet.networklayer.ipv4.Ipv4NatTable\""
par test.BaseStation.ipv4.natTable networkProtocolModule "\"^.ip\""
par test.BaseStation.ipv4.natTable config "<config/> at content:1"
par test.BaseStation.ipv4.up typename "\"inet.common.MessageDispatcher\""
par test.BaseStation.ipv4.up displayStringTextFormat "\"processed %p pk (%l)\""
par test.BaseStation.ipv4.up forwardServiceRegistration true
par test.BaseStation.ipv4.up forwardProtocolRegistration true
par test.BaseStation.ipv4.igmp typename "\"inet.networklayer.ipv4.Igmpv2\""
par test.BaseStation.ipv4.igmp interfaceTableModule "\"test.BaseStation.interfaceTable\""
par test.BaseStation.ipv4.igmp routingTableModule "\"test.BaseStation.ipv4.routingTable\""
par test.BaseStation.ipv4.igmp crcMode "\"declared\""
attr enum declared,computed
par test.BaseStation.ipv4.igmp enabled true
par test.BaseStation.ipv4.igmp robustnessVariable 2
par test.BaseStation.ipv4.igmp queryInterval 125s
attr unit s
par test.BaseStation.ipv4.igmp queryResponseInterval 10s
attr unit s
par test.BaseStation.ipv4.igmp groupMembershipInterval 260s
attr unit s
par test.BaseStation.ipv4.igmp otherQuerierPresentInterval 255s
attr unit s
par test.BaseStation.ipv4.igmp startupQueryInterval 31.25s
attr unit s
par test.BaseStation.ipv4.igmp startupQueryCount 2
par test.BaseStation.ipv4.igmp lastMemberQueryInterval 1s
attr unit s
par test.BaseStation.ipv4.igmp lastMemberQueryCount 2
par test.BaseStation.ipv4.igmp unsolicitedReportInterval 10s
attr unit s
par test.BaseStation.ipv4.icmp typename "\"inet.networklayer.ipv4.Icmp\""
par test.BaseStation.ipv4.icmp interfaceTableModule "\"test.BaseStation.interfaceTable\""
par test.BaseStation.ipv4.icmp routingTableModule "\"test.BaseStation.ipv4.routingTable\""
par test.BaseStation.ipv4.icmp crcMode "\"declared\""
attr enum declared,computed
attr mutable ""
par test.BaseStation.ipv4.icmp quoteLength 8B
attr mutable ""
attr unit B
par test.BaseStation.ipv4.mp typename "\"inet.common.MessageDispatcher\""
par test.BaseStation.ipv4.mp displayStringTextFormat "\"processed %p pk (%l)\""
par test.BaseStation.ipv4.mp forwardServiceRegistration true
par test.BaseStation.ipv4.mp forwardProtocolRegistration true
par test.BaseStation.ipv4.ip typename "\"inet.networklayer.ipv4.Ipv4\""
par test.BaseStation.ipv4.ip interfaceTableModule "\"test.BaseStation.interfaceTable\""
par test.BaseStation.ipv4.ip routingTableModule "\"test.BaseStation.ipv4.routingTable\""
par test.BaseStation.ipv4.ip arpModule "\"test.BaseStation.ipv4.arp\""
par test.BaseStation.ipv4.ip icmpModule "\"test.BaseStation.ipv4.icmp\""
par test.BaseStation.ipv4.ip crcMode "\"declared\""
attr enum declared,computed
par test.BaseStation.ipv4.ip timeToLive 32
par test.BaseStation.ipv4.ip multicastTimeToLive 32
par test.BaseStation.ipv4.ip fragmentTimeout 60s
attr unit s
par test.BaseStation.ipv4.ip limitedBroadcast false
par test.BaseStation.ipv4.ip directBroadcastInterfaces "\"\""
scalar test.BaseStation.ipv4.ip packetDropAddressResolutionFailed:count 0
attr interpolationmode none
attr recordingmode count
attr source packetDropReasonIsAddressResolutionFailed(packetDropped)
attr title "packet drop: address resolution failed, count"
scalar test.BaseStation.ipv4.ip packetDropAddressResolutionFailed:sum(packetBytes) 0
attr interpolationmode none
attr recordingmode sum(packetBytes)
attr source packetDropReasonIsAddressResolutionFailed(packetDropped)
attr title "packet drop: address resolution failed, sum(packetBytes)"
scalar test.BaseStation.ipv4.ip packetDropHopLimitReached:count 0
attr interpolationmode none
attr recordingmode count
attr source packetDropReasonIsHopLimitReached(packetDropped)
attr title "packet drop: hop limit reached, count"
scalar test.BaseStation.ipv4.ip packetDropHopLimitReached:sum(packetBytes) 0
attr interpolationmode none
attr recordingmode sum(packetBytes)
attr source packetDropReasonIsHopLimitReached(packetDropped)
attr title "packet drop: hop limit reached, sum(packetBytes)"
scalar test.BaseStation.ipv4.ip packetDropForwardingDisabled:count 0
attr interpolationmode none
attr recordingmode count
attr source packetDropReasonIsForwardingDisabled(packetDropped)
attr title "packet drop: forwarding disabled, count"
scalar test.BaseStation.ipv4.ip packetDropForwardingDisabled:sum(packetBytes) 0
attr interpolationmode none
attr recordingmode sum(packetBytes)
attr source packetDropReasonIsForwardingDisabled(packetDropped)
attr title "packet drop: forwarding disabled, sum(packetBytes)"
scalar test.BaseStation.ipv4.ip packetDropNoInterfaceFound:count 0
attr interpolationmode none
attr recordingmode count
attr source packetDropReasonIsNoInterfaceFound(packetDropped)
attr title "packet drop: no interface found, count"
scalar test.BaseStation.ipv4.ip packetDropNoInterfaceFound:sum(packetBytes) 0
attr interpolationmode none
attr recordingmode sum(packetBytes)
attr source packetDropReasonIsNoInterfaceFound(packetDropped)
attr title "packet drop: no interface found, sum(packetBytes)"
scalar test.BaseStation.ipv4.ip packetDropNoRouteFound:count 0
attr interpolationmode none
attr recordingmode count
attr source packetDropReasonIsNoRouteFound(packetDropped)
attr title "packet drop: no route found, count"
scalar test.BaseStation.ipv4.ip packetDropNoRouteFound:sum(packetBytes) 0
attr interpolationmode none
attr recordingmode sum(packetBytes)
attr source packetDropReasonIsNoRouteFound(packetDropped)
attr title "packet drop: no route found, sum(packetBytes)"
scalar test.BaseStation.ipv4.ip packetDropUndefined:count 0
attr interpolationmode none
attr recordingmode count
attr source packetDropReasonIsUndefined(packetDropped)
attr title "packet drop: undefined, count"
scalar test.BaseStation.ipv4.ip packetDropUndefined:sum(packetBytes) 0
attr interpolationmode none
attr recordingmode sum(packetBytes)
attr source packetDropReasonIsUndefined(packetDropped)
attr title "packet drop: undefined, sum(packetBytes)"
par test.BaseStation.ipv4.arp typename "\"inet.networklayer.arp.ipv4.GlobalArp\""
par test.BaseStation.ipv4.arp interfaceTableModule "\"test.BaseStation.interfaceTable\""
par test.BaseStation.ipv4.arp addressType "\"ipv4\""
attr enum ipv4,ipv6,mac,moduleid,modulepath
par test.BaseStation.ipv4.lp typename "\"inet.common.MessageDispatcher\""
par test.BaseStation.ipv4.lp displayStringTextFormat "\"processed %p pk (%l)\""
par test.BaseStation.ipv4.lp forwardServiceRegistration true
par test.BaseStation.ipv4.lp forwardProtocolRegistration true
par test.BaseStation.ipv4 typename "\"inet.networklayer.ipv4.Ipv4NetworkLayer\""
par test.BaseStation.ipv4 forwarding true
par test.BaseStation.ipv4 multicastForwarding false
par test.BaseStation.ipv4 interfaceTableModule "\"test.BaseStation.interfaceTable\""
par test.BaseStation.ipv4 displayStringTextFormat "\"%i\""
par test.BaseStation.nl typename "\"inet.common.MessageDispatcher\""
par test.BaseStation.nl displayStringTextFormat "\"processed %p pk (%l)\""
par test.BaseStation.nl forwardServiceRegistration true
par test.BaseStation.nl forwardProtocolRegistration true
par test.BaseStation.udp typename "\"inet.transportlayer.udp.Udp\""
par test.BaseStation.udp interfaceTableModule "\"test.BaseStation.interfaceTable\""
par test.BaseStation.udp icmpModule "\"^.ipv4.icmp\""
par test.BaseStation.udp icmpv6Module "\"^.ipv6.icmpv6\""
par test.BaseStation.udp crcMode "\"declared\""
attr enum disabled,declared,computed
par test.BaseStation.udp defaultMulticastLoop true
scalar test.BaseStation.udp packetReceived:count 0
attr interpolationmode none
attr recordingmode count
attr source packetReceived
attr title "packets received, count"
scalar test.BaseStation.udp packetReceived:sum(packetBytes) 0
attr interpolationmode none
attr recordingmode sum(packetBytes)
attr source packetReceived
attr title "packets received, sum(packetBytes)"
scalar test.BaseStation.udp packetSent:count 0
attr interpolationmode none
attr recordingmode count
attr source packetSent
attr title "packets sent, count"
scalar test.BaseStation.udp packetSent:sum(packetBytes) 0
attr interpolationmode none
attr recordingmode sum(packetBytes)
attr source packetSent
attr title "packets sent, sum(packetBytes)"
scalar test.BaseStation.udp passedUpPk:count 0
attr interpolationmode none
attr recordingmode count
attr source packetSentToUpper
attr title "packets passed up, count"
scalar test.BaseStation.udp droppedPkWrongPort:count 0
attr interpolationmode none
attr recordingmode count
attr source packetDropReasonIsNoPortFound(packetDropped)
attr title "packets dropped (wrong port), count"
scalar test.BaseStation.udp droppedPkBadChecksum:count 0
attr interpolationmode none
attr recordingmode count
attr source packetDropReasonIsIncorrectlyReceived(packetDropped)
attr title "packets dropped (checksum error), count"
par test.BaseStation.tcp typename "\"inet.transportlayer.tcp.Tcp\""
par test.BaseStation.tcp crcMode "\"declared\""
attr enum declared,computed
par test.BaseStation.tcp advertisedWindow 7504
par test.BaseStation.tcp delayedAcksEnabled false
par test.BaseStation.tcp nagleEnabled true
par test.BaseStation.tcp limitedTransmitEnabled false
par test.BaseStation.tcp increasedIWEnabled false
par test.BaseStation.tcp sackSupport false
par test.BaseStation.tcp windowScalingSupport false
par test.BaseStation.tcp windowScalingFactor -1
par test.BaseStation.tcp timestampSupport false
par test.BaseStation.tcp mss 536
par test.BaseStation.tcp msl 120s
attr unit s
par test.BaseStation.tcp tcpAlgorithmClass "\"TcpReno\""
attr enum TcpVegas,TcpWestwood,TcpNewReno,TcpReno,TcpTahoe,TcpNoCongestionControl
par test.BaseStation.tcp useDataNotification false
par test.BaseStation.tcp dupthresh 3
par test.BaseStation.tcp initialSsthresh 4294967295
par test.BaseStation.tcp stopOperationExtraTime 0s
attr unit s
par test.BaseStation.tcp stopOperationTimeout 2s
attr unit s
par test.BaseStation.tcp ecnWillingness false
par test.BaseStation.tcp dctcpGamma 0.0625
par test.BaseStation.tn typename "\"inet.common.MessageDispatcher\""
par test.BaseStation.tn displayStringTextFormat "\"processed %p pk (%l)\""
par test.BaseStation.tn forwardServiceRegistration true
par test.BaseStation.tn forwardProtocolRegistration true
par test.BaseStation.at typename "\"inet.common.MessageDispatcher\""
par test.BaseStation.at displayStringTextFormat "\"processed %p pk (%l)\""
par test.BaseStation.at forwardServiceRegistration true
par test.BaseStation.at forwardProtocolRegistration true
par test.BaseStation.routing typename "\"inet.routing.leach.LeachBS\""
par test.BaseStation.routing interfaceTableModule "\"test.BaseStation.interfaceTable\""
par test.BaseStation.routing routingTableModule "\"^.ipv4.routingTable\""
scalar test.BaseStation.routing #bsPktReceived 42
par test.BaseStation typename "\"inet.node.leachNode.leachNode\""
par test.BaseStation hasStatus false
par test.BaseStation osgModel "\"\""
par test.BaseStation osgModelColor "\"\""
par test.BaseStation canvasImage "\"\""
par test.BaseStation canvasImageColor "\"\""
par test.BaseStation recordPcap false
par test.BaseStation numPcapRecorders 0
par test.BaseStation numLoInterfaces 1
par test.BaseStation numWlanInterfaces 1
par test.BaseStation numEthInterfaces 0
par test.BaseStation numPppInterfaces 0
par test.BaseStation numTunInterfaces 0
par test.BaseStation numVirtInterfaces 0
par test.BaseStation fcsMode "\"declared\""
attr enum declared,computed
par test.BaseStation hasIpv4 true
par test.BaseStation hasIpv6 false
par test.BaseStation hasGn false
par test.BaseStation forwarding true
par test.BaseStation multicastForwarding false
par test.BaseStation hasUdp true
par test.BaseStation hasTcp true
par test.BaseStation hasSctp false
par test.BaseStation numApps 0
par test typename "\"test.simulations.test\""
par test numNodes 5

